/*--------------------------------*- C++ -*----------------------------------*\
| =========                 |                                                 |
| \\      /  F ield         | OpenFOAM: The Open Source CFD Toolbox           |
|  \\    /   O peration     | Version:  2206                                  |
|   \\  /    A nd           | Website:  www.openfoam.com                      |
|    \\/     M anipulation  |                                                 |
\*---------------------------------------------------------------------------*/
FoamFile
{
    version     2.0;
    format      ascii;
    arch        "LSB;label=32;scalar=64";
    class       polyBoundaryMesh;
    location    "0.2/polyMesh";
    object      boundary;
}
// * * * * * * * * * * * * * * * * * * * * * * * * * * * * * * * * * * * * * //

6
(
    sides
    {
        type            patch;
        nFaces          2048;
        startFace       23040;
    }
    outlet
    {
        type            patch;
        nFaces          1024;
        startFace       25088;
    }
    faceBot
    {
        type            wall;
        inGroups        1(wall);
        nFaces          0;
        startFace       26112;
    }
    faceTop
    {
        type            wall;
        inGroups        1(wall);
        nFaces          0;
        startFace       26112;
    }
    sideBot
    {
        type            wall;
        inGroups        1(wall);
        nFaces          0;
        startFace       26112;
    }
    sideTop
    {
        type            wall;
        inGroups        1(wall);
        nFaces          0;
        startFace       26112;
    }
)

// ************************************************************************* //
