/*--------------------------------*- C++ -*----------------------------------*\
| =========                 |                                                 |
| \\      /  F ield         | OpenFOAM: The Open Source CFD Toolbox           |
|  \\    /   O peration     | Version:  2206                                  |
|   \\  /    A nd           | Website:  www.openfoam.com                      |
|    \\/     M anipulation  |                                                 |
\*---------------------------------------------------------------------------*/
FoamFile
{
    version     2.0;
    format      ascii;
    arch        "LSB;label=32;scalar=64";
    class       triSurfacePointScalarField;
    location    "constant/triSurface";
    object      join.curvature;
}
// * * * * * * * * * * * * * * * * * * * * * * * * * * * * * * * * * * * * * //

dimensions      [0 1 0 0 0 0 0];

value           nonuniform List<scalar> 
1444
(
237.034989
280.317801
353.595459
235.772049
235.814464
240.300797
276.902778
236.402284
245.315877
275.056462
238.934938
251.39495
275.818941
243.680026
258.52486
280.112972
249.541305
266.670879
289.059441
256.903614
275.443268
301.308457
264.61681
283.441517
315.029908
273.652195
291.644086
328.465894
282.221393
298.839525
339.878683
290.821111
305.55139
347.986238
298.295186
310.713793
352.552309
305.390798
314.542011
353.369649
311.137622
317.104711
350.179064
315.516056
318.295801
342.739222
318.211789
317.844177
332.611688
319.924635
316.111219
319.726797
319.685075
313.524513
306.12632
318.299631
310.3048
292.704663
315.384773
305.996455
282.470455
312.228571
301.79242
276.741995
307.969671
297.797629
275.002364
303.733025
294.889462
276.013189
299.761713
293.421466
278.934236
297.036578
293.938271
283.3371
295.913051
296.335539
288.889923
296.775267
300.084411
295.160342
299.212223
304.409597
302.491658
303.022079
308.661627
310.153324
307.183173
312.674018
318.566643
311.441304
316.006932
326.279578
314.726355
317.602595
333.774667
317.828662
318.283918
340.854244
319.452668
317.154641
346.704284
320.002957
314.913841
350.68147
318.653161
310.776082
352.934563
316.304437
305.211636
353.418364
312.339613
298.560376
351.903052
306.997578
290.99436
348.009192
300.19691
282.479114
343.049805
292.997946
273.592916
336.375233
284.607857
265.08304
329.312328
276.127609
257.28269
320.935407
267.087333
249.623576
312.709953
259.315897
243.645405
304.962386
251.683255
238.949738
297.6533
245.396966
236.590848
290.850486
240.148581
285.012879
237.148455
285.639242
288.026983
290.316266
292.79204
295.471309
297.786562
300.05717
302.605819
305.243478
307.59968
309.803373
311.810033
313.830995
315.63609
317.132195
319.057248
320.639746
321.363994
322.044733
323.08379
324.123971
324.30347
324.058473
324.238888
324.099324
323.688279
323.279447
322.611071
321.723291
320.451132
319.174444
318.133618
316.967731
315.274866
313.667017
312.163138
310.384233
308.728765
306.819363
305.067279
303.449784
301.416489
299.377761
297.685497
296.120523
294.354964
292.555467
290.699859
289.045698
287.338124
285.557101
284.368752
283.011
281.11673
279.450656
278.328437
277.393111
275.921614
274.373573
273.433279
272.433403
271.456574
270.713379
269.999085
269.334498
268.599495
268.124399
268.076028
268.14167
267.98923
268.150549
268.601524
269.031112
269.760928
270.448781
271.456112
272.732762
273.789121
274.973148
276.58612
278.417371
280.154004
281.929414
283.706389
285.718266
287.704246
289.619161
292.118615
294.436319
296.149944
298.015211
300.360181
302.807948
304.552831
306.020849
307.957557
309.620381
311.044282
312.456349
313.58562
314.43283
314.823991
315.104573
315.471948
315.549165
314.930169
314.20616
313.382952
312.077777
310.684779
308.832855
306.937992
304.997979
302.475819
299.807676
297.367765
294.972822
292.324751
289.624875
286.89063
284.395534
281.943224
279.516923
277.794967
276.098938
274.057327
272.397214
271.437109
270.873482
270.02839
269.254422
269.213382
269.315833
269.575768
270.20529
270.978973
271.921736
272.875561
274.099557
275.785879
277.64865
279.332812
281.265837
283.491259
1409.12963
1063.07472
1407.62449
1067.46334
1403.13974
1071.85389
1396.45809
1076.86734
1387.60988
1082.52813
1381.20929
1088.39332
1379.99663
1094.39609
1378.28668
1100.39704
1375.9001
1107.5197
1372.67671
1115.7435
1368.4759
1123.17677
1363.10133
1130.8429
1356.30607
1140.06331
1347.93871
1148.78401
1337.79869
1157.1111
1325.62676
1165.99203
1311.29663
1174.48587
1294.57657
1182.21644
1275.36312
1189.4642
1253.43734
1196.57447
1228.76038
1202.97788
1201.20755
1208.14472
1170.80583
1212.21218
1137.47746
1215.93721
1101.31988
1218.18693
1062.48259
1218.66502
1020.9811
1219.38772
977.048411
1218.92506
931.016809
1216.14219
908.83653
1213.0038
901.054668
1209.58276
894.752105
1204.78423
890.123395
1198.82612
887.32926
1191.90583
886.851292
1184.61917
888.803818
1177.09199
892.739622
1168.79296
898.645029
1159.75961
906.570438
1150.13755
917.020527
1140.60029
929.94988
1131.18651
944.809829
1121.46883
961.367822
1111.41973
979.284394
1100.99057
999.394111
1091.28643
1021.49915
1082.3517
1043.49471
1072.53968
1066.11494
1062.92463
1090.52543
1054.83398
1114.48974
1046.58653
1137.92625
1038.44644
1161.73286
1031.43691
1184.84441
1024.9157
1206.84254
1018.75588
1227.98371
1013.36339
1248.67291
1009.18536
1268.30242
1005.87731
1286.35966
1003.1131
1303.0042
1001.09996
1319.13394
1000.52602
1333.52307
1000.50067
1345.86529
1000.75708
1358.44628
1002.96834
1369.66961
1005.91345
1378.24256
1008.54559
1386.38627
1012.43753
1394.17104
1017.58455
1400.28053
1022.91435
1404.92706
1028.49884
1408.24547
1034.35822
1410.89342
1040.88981
1412.9258
1048.07876
1413.62122
1055.30082
1412.91711
1062.4356
1410.8767
1069.46184
1408.22152
1076.87099
1404.89533
1084.5957
1400.24073
1092.07229
1394.12334
1099.15717
1386.3318
1105.63925
1378.18265
1112.53199
1369.60327
1119.81619
1358.37356
1125.65616
1345.78831
1131.04266
1333.44188
1137.34746
1319.04791
1142.67306
1302.91474
1147.19611
1286.26701
1151.98782
1268.20664
1156.23484
1248.57444
1159.74567
1227.8832
1162.89514
1206.73998
1166.16506
1184.73929
1169.08238
1161.62493
1171.25883
1137.81546
1172.88776
1114.37561
1174.77953
1090.40667
1175.85996
1065.99177
1175.85583
1043.36635
1176.71803
1021.36329
1177.02658
999.250223
1175.64025
979.132433
1174.41141
961.205636
1173.34084
944.635599
1171.2628
929.762594
1168.31588
916.819562
1164.57777
906.355347
1160.57194
898.41403
1156.32008
892.491151
1151.22309
888.537031
1145.25228
886.566091
1138.49856
887.025577
1131.60373
889.799766
1124.58322
894.407461
1116.99491
900.688629
1108.8402
908.449873
1100.07401
930.446312
1091.87651
976.468675
1084.29742
1020.39314
1075.7279
1061.88905
1067.34152
1100.7203
1060.48679
1136.87249
1053.47944
1170.19778
1046.6771
1200.59768
1041.08584
1228.15058
1036.05652
1252.83024
1031.47334
1274.76103
1027.70574
1293.98181
1025.1759
1310.71205
1023.464
1325.05575
1022.23394
1337.24445
1021.6122
1347.40401
1022.25985
1355.79522
1023.17378
1362.6179
1024.11687
1368.02255
1026.69982
1372.25732
1029.61314
1375.51831
1031.84786
1377.945
1034.97585
1379.69798
1038.93714
1380.95629
1042.7002
1387.39481
1046.37067
1396.29471
1050.00206
1403.03047
1054.06781
1407.56981
1058.60088
1283.5357
1270.64267
1414.38194
1297.93765
1309.52406
1259.72368
1246.77564
1273.26894
1237.94777
1228.19301
1251.72764
1221.09187
1216.77855
1233.90918
1212.28022
1211.27225
1220.98426
1214.31639
1211.23248
1216.79778
1227.39517
1216.71374
1223.05919
1246.41556
1228.27505
1238.2945
1266.89345
1244.57664
1257.02742
1285.63482
1264.00821
1276.10705
1300.87108
1283.69975
1292.49364
1309.9456
1301.0088
1304.60216
1312.17517
1316.15517
1311.59669
1308.34155
1327.76743
1311.96671
1298.32397
1335.46967
1307.23258
1284.64393
1339.59483
1297.9212
1269.50269
1339.04222
1285.382
1254.18701
1333.36856
1271.9334
1240.52236
1322.18235
1258.60815
1229.08558
1305.74454
1247.37571
1220.09259
1284.09802
1237.83615
1213.30125
1258.91247
1230.29779
1209.43582
1231.5327
1223.70041
1206.81236
1202.87602
1218.25734
1205.17572
1176.97359
1214.60304
1206.00183
1155.1714
1211.01589
1207.47615
1139.67458
1209.91189
1211.36957
1133.81017
1210.67209
1218.47258
1137.78006
1213.58943
1227.9493
1151.59289
1219.97111
1239.99915
1173.52214
1229.23331
1253.43754
1200.71846
1241.84541
1267.22584
1229.05235
1255.82093
1280.27548
1255.87727
1270.32734
1292.60367
1278.85
1283.67082
1303.4105
1296.62844
1295.57919
1313.6632
1311.46211
1306.9399
1325.53815
1324.63643
1317.76965
1338.90641
1337.81962
1330.47322
1354.13361
1352.44676
1345.16896
1369.33065
1366.74954
1360.45979
1380.96817
1378.22965
1374.17694
1386.59107
1383.9707
1383.00271
1384.30232
1381.89893
1385.29819
1373.94345
1370.70792
1379.32776
1356.47355
1351.65638
1366.02228
1334.61112
1326.72819
1346.25607
1298.01977
1322.44706
1207.56456
1194.27832
1414.38194
1215.06819
1206.3342
1211.27649
1222.14851
1218.61925
1215.70057
1250.03232
1224.17272
1222.61596
1276.81717
1230.64742
1232.70916
1299.83448
1238.12063
1245.14191
1317.97435
1247.79414
1259.85272
1330.63052
1259.05933
1275.43938
1338.02878
1272.4164
1290.29126
1340.10252
1285.93227
1302.50574
1337.84614
1298.43835
1310.83753
1331.50461
1307.71943
1312.86582
1320.75395
1312.51852
1308.02418
1307.11147
1312.15903
1297.191
1290.28882
1305.1772
1280.37901
1271.04419
1293.15621
1260.38587
1251.80346
1276.75301
1240.15636
1234.17491
1257.64623
1222.66535
1220.67038
1238.99682
1213.21885
1212.71324
1223.76589
1215.22794
1210.75559
1217.47185
1227.04241
1214.17681
1221.61607
1244.98467
1224.04409
1234.42726
1267.83495
1240.52554
1252.20159
1292.7353
1262.19537
1273.65955
1318.13135
1289.14752
1298.31896
1342.95147
1317.62614
1322.84746
1363.3167
1343.9766
1346.57089
1378.22576
1365.89435
1366.44312
1386.1939
1379.92913
1379.85383
1385.95233
1384.9234
1385.79997
1378.44394
1381.36942
1383.55984
1365.42087
1371.43469
1374.78791
1349.89204
1357.64213
1361.04797
1334.66985
1343.24415
1345.79794
1321.97157
1329.73423
1331.12046
1310.92585
1316.30935
1318.338
1300.28251
1302.58881
1307.52706
1289.50372
1285.87795
1296.206
1276.70748
1264.48624
1284.30148
1262.89332
1239.30731
1271.01849
1249.2818
1211.17143
1256.53288
1236.32082
1182.96845
1242.55571
1225.47583
1158.36874
1229.93376
1216.98654
1141.23494
1220.66217
1210.95305
1133.52572
1214.31584
1207.05861
1136.70257
1211.32348
1206.08649
1149.53007
1210.43081
1168.85724
1211.58458
1998.5403
1997.80048
1997.71829
1998.21357
1998.40151
1998.13351
1997.07937
1997.17743
1998.40409
1997.5756
1996.56429
1997.71438
1997.73024
1997.06575
1997.47648
1997.59013
1997.17568
1996.76644
1997.17599
1997.63364
1997.56252
1997.15572
1997.85276
1997.85752
1996.6871
1997.79366
1998.62854
1997.42196
1997.36078
1998.43314
1998.73866
1998.57064
1998.10737
1998.21707
1998.99051
1999.37552
1999.29816
1998.8368
1999.03232
1999.77638
2000.22313
2000.1983
1999.37621
1999.66071
2001.08649
2000.45575
1999.49473
2000.82112
2000.93614
2000.33475
2000.81335
2000.91324
2000.47807
2000.071
2000.44337
2000.78612
2000.59593
2000.08444
2000.61925
2000.46827
1999.15876
1999.98351
2000.61457
1999.17192
1998.8547
1999.68291
1999.69635
1999.25453
1998.52681
1998.33578
1998.79777
1998.9191
1998.5403
1997.80048
1997.71829
1998.21357
1998.40151
1998.13351
1997.07937
1997.17743
1998.40409
1997.5756
1996.56429
1997.71438
1997.73024
1997.06575
1997.47648
1997.59013
1997.17568
1996.76644
1997.17599
1997.63364
1997.56252
1997.15572
1997.85276
1997.85752
1996.6871
1997.79366
1998.62854
1997.42196
1997.36078
1998.43314
1998.73866
1998.57064
1998.10737
1998.21707
1998.99051
1999.37552
1999.29816
1998.8368
1999.03232
1999.77638
2000.22313
2000.1983
1999.37621
1999.66071
2001.08649
2000.45575
1999.49473
2000.82112
2000.93614
2000.33475
2000.81335
2000.91324
2000.47807
2000.071
2000.44337
2000.78612
2000.59593
2000.08444
2000.61925
2000.46827
1999.15876
1999.98351
2000.61457
1999.17192
1998.8547
1999.68291
1999.69635
1999.25453
1998.52681
1998.33578
1998.79777
1998.9191
1998.51874
1997.73718
1997.61418
1998.07088
1998.22087
1997.91523
1996.82737
1996.89256
1998.08712
1997.23089
1996.19527
1997.32134
1997.31855
1996.63948
1997.03546
1997.14146
1996.71884
1996.30952
1996.71848
1997.1828
1997.11779
1996.72507
1997.43595
1997.45955
1996.31331
1997.44255
1998.30531
1997.13096
1997.10275
1998.20975
1998.55388
1998.42474
1998.00187
1998.15326
1998.96935
1999.39712
1999.36249
1998.94374
1999.18088
1999.96543
2000.45096
2000.46478
1999.67711
1999.99453
2001.45261
2000.84958
1999.91097
2001.26162
2001.39533
2000.80748
2001.30021
2001.40587
2000.97733
2000.56928
2000.94157
2001.27581
2001.07793
2000.55129
2001.07145
2000.90163
1999.56772
2000.36812
2000.97131
1999.49627
1999.14599
1999.94049
1999.91608
1999.43628
1998.66979
1998.43794
1998.85818
1998.93853
1998.51874
1997.73718
1997.61418
1998.07088
1998.22087
1997.91523
1996.82737
1996.89256
1998.08712
1997.23089
1996.19527
1997.32134
1997.31855
1996.63948
1997.03546
1997.14146
1996.71884
1996.30952
1996.71848
1997.1828
1997.11779
1996.72507
1997.43595
1997.45955
1996.31331
1997.44255
1998.30531
1997.13096
1997.10275
1998.20975
1998.55388
1998.42474
1998.00187
1998.15326
1998.96935
1999.39712
1999.36249
1998.94374
1999.18088
1999.96543
2000.45096
2000.46478
1999.67711
1999.99453
2001.45261
2000.84958
1999.91097
2001.26162
2001.39533
2000.80748
2001.30021
2001.40587
2000.97733
2000.56928
2000.94157
2001.27581
2001.07793
2000.55129
2001.07145
2000.90163
1999.56772
2000.36812
2000.97131
1999.49627
1999.14599
1999.94049
1999.91608
1999.43628
1998.66979
1998.43794
1998.85818
1998.93853
13.9433358
13.9488637
13.9526541
13.9511225
13.9531119
13.9623992
13.9660505
13.9702898
13.9762464
13.9727648
13.9804793
13.989921
13.9856503
13.9899242
13.9988309
13.9978425
14.0015032
14.0137331
14.0122913
14.0126402
14.0242296
14.026427
14.0304585
14.0351952
14.0343183
14.0408247
14.0510358
14.0559633
14.0592061
14.0631555
14.0670554
14.0742204
14.0816561
14.0852489
14.0892297
14.0963734
14.1033471
14.110935
14.1169626
14.1181728
14.1227308
14.1336612
14.1395916
14.1459118
14.1537233
14.1542177
14.1631207
14.1731145
14.1730207
14.1789911
14.187984
14.1902145
14.1951167
14.2049717
14.2065743
14.2089402
14.2171573
14.2199494
14.2231872
14.2267467
14.2272806
14.2304677
14.2347882
14.2365578
14.2371492
14.2376572
14.237733
14.2382
14.2381819
14.2367849
14.2350995
14.2336389
14.231657
14.2294124
14.2266598
14.2229095
14.219577
14.217171
14.2144381
14.2122313
14.2116225
14.2117157
14.215321
14.2224697
14.2289377
14.236318
14.2410621
14.2361325
14.2243877
14.2077174
14.1852973
14.1624836
14.141223
14.1213857
14.1035226
14.0872229
14.072169
14.0583785
14.0456511
14.0334097
14.0217262
14.0105533
13.9998158
13.9901735
13.9811782
13.9717508
13.9627367
13.9550565
13.9479333
13.9414834
13.9349091
13.9268749
13.9204985
13.9176626
13.9129904
13.9092939
13.9066739
13.8995132
13.8990404
13.9001019
13.8934706
13.8923586
13.8945984
13.890694
13.8904057
13.8966006
13.8930558
13.8910629
13.8979402
13.8979115
13.8995266
13.9016684
13.8992649
13.9034391
13.9108889
13.9137579
13.9152245
13.9172643
13.9192025
13.924361
13.9298874
13.9314857
13.9333084
13.9383737
12.5043895
12.4612648
11.3210129
12.3516652
12.2336658
11.0033518
12.1063263
11.9243718
10.7323955
11.8035169
11.5729279
10.5565047
11.4969063
11.2572267
10.5366523
11.2352527
11.0213506
10.6661511
11.077314
10.9215538
10.8980153
11.0350146
10.9522633
11.1761701
11.1051764
11.0839427
11.4458068
11.2560718
11.2904205
11.7019894
11.4659869
11.5343319
11.9239574
11.7110276
11.8036518
12.11664
11.9693487
12.0769152
12.2859867
12.2313888
12.340999
12.432642
12.4741629
12.57987
12.560504
12.6872413
12.7766857
12.652908
12.8635864
12.9379002
12.7122565
12.98593
13.0357026
12.7208323
13.0587712
13.0821266
12.6744409
13.0709916
13.0703784
12.5770877
13.0338384
13.0009468
12.4163772
12.944154
12.8904984
12.2197977
12.816288
12.7336984
11.9817937
12.657388
12.5539646
11.7210357
12.4740495
12.3561419
11.4553436
12.2859521
12.1535311
11.198131
12.0926296
11.9515543
10.9698668
11.905538
11.7530122
10.772752
11.735387
11.5793239
10.6288727
11.5745949
11.4112619
10.5367231
11.4340581
11.2651754
10.5022489
11.3044632
11.1346503
10.5308799
11.1947157
11.0200408
10.6054396
11.0996032
10.9329957
10.738349
11.029067
10.8685021
10.9057858
10.9864663
10.8442076
11.1021625
10.9744882
10.8622287
11.3182728
11.0065719
10.9296726
11.5398755
11.0786248
11.0468818
11.7602962
11.1950577
11.2065332
11.9548885
11.3554098
11.4177048
12.1243742
11.5475436
11.6501417
12.2467611
11.7679573
11.9023584
12.3139598
11.9931749
12.1484931
12.3227321
12.2123189
12.3618176
12.2507695
12.3930305
12.5261805
12.1160155
12.5181285
12.6037521
11.9043698
12.5617314
12.5872531
11.6317946
14.0037825
)
;


// ************************************************************************* //
