/*--------------------------------*- C++ -*----------------------------------*\
| =========                 |                                                 |
| \\      /  F ield         | OpenFOAM: The Open Source CFD Toolbox           |
|  \\    /   O peration     | Version:  v2206                                 |
|   \\  /    A nd           | Website:  www.openfoam.com                      |
|    \\/     M anipulation  |                                                 |
\*---------------------------------------------------------------------------*/
FoamFile
{
    version     2.0;
    format      ascii;
    class       dictionary;
    object      surfaceFeatureExtractDict;
}
// * * * * * * * * * * * * * * * * * * * * * * * * * * * * * * * * * * * * * //

// Self intersection (single or multiple surfaces).
// - Use 'surfaces' entry (a wordRe list) if it exists.
// - If the dictionary name does not have an extension, 'surfaces' is mandatory.
electrods
{
    extractionMethod    extractFromSurface;

    surfaces            (faceBot.stl sideBot.stl faceTop.stl sideTop.stl);

    // mm -> m scaling
    // scale               0.001;

    includedAngle       120;

curvature true;
    // Do not mark region edges
    geometricTestOnly   yes;

    includedAngle       120;

    curvature true;
        // Do not mark region edges
            geometricTestOnly   yes;


    // Generate additional intersection features (none | self | region)
    intersectionMethod  self;

    // Tolerance for surface intersections
    // tolerance           1e-3;

// Output options:

    // Write features to OBJ format for postprocessing
    writeObj            yes;
}

// ************************************************************************* //
