/*--------------------------------*- C++ -*----------------------------------*\
| =========                 |                                                 |
| \\      /  F ield         | OpenFOAM: The Open Source CFD Toolbox           |
|  \\    /   O peration     | Version:  2206                                  |
|   \\  /    A nd           | Website:  www.openfoam.com                      |
|    \\/     M anipulation  |                                                 |
\*---------------------------------------------------------------------------*/
FoamFile
{
    version     2.0;
    format      ascii;
    arch        "LSB;label=32;scalar=64";
    class       triSurfacePointScalarField;
    location    "constant/triSurface";
    object      electrods.curvature;
}
// * * * * * * * * * * * * * * * * * * * * * * * * * * * * * * * * * * * * * //

dimensions      [0 1 0 0 0 0 0];

value           nonuniform List<scalar> 
866
(
0
0
0
0
0
0
0
0
0
0
0
0
0
0
0
0
0
0
0
0
0
0
0
0
0
0
0
0
0
0
0
0
0
0
0
0
0
0
0
0
0
0
0
0
0
0
0
0
0
0
0
0
0
0
0
0
0
0
0
0
0
0
0
0
0
0
0
0
0
0
0
0
0
0
0
0
0
0
0
0
0
0
0
0
0
0
0
0
0
0
0
0
0
0
0
0
0
0
0
0
0
0
0
0
0
0
0
0
0
0
0
0
0
0
0
0
0
0
0
0
0
0
0
0
0
0
0
0
0
0
0
0
0
0
0
0
0
0
0
0
0
0
0
0
0
1.9984567
1.9984567
1.99826311
1.99826311
1.99766598
1.99766598
1.99768937
1.99768937
1.99831244
1.99831244
1.99858699
1.99858699
1.99839489
1.99839489
1.99746839
1.99746839
1.99764631
1.99764631
1.99892352
1.99892352
1.99816935
1.99816935
1.99721073
1.99721073
1.99841452
1.99841452
1.99850052
1.99850052
1.99783388
1.99783388
1.99826815
1.99826815
1.99844009
1.99844009
1.99796036
1.99796036
1.99753974
1.99753974
1.99796036
1.99796036
1.99844009
1.99844009
1.99826815
1.99826815
1.99783388
1.99783388
1.99850052
1.99850052
1.99841452
1.99841452
1.99721073
1.99721073
1.99816935
1.99816935
1.99892352
1.99892352
1.99764631
1.99764631
1.99746839
1.99746839
1.99839489
1.99839489
1.99858699
1.99858699
1.99831244
1.99831244
1.99768937
1.99768937
1.99766598
1.99766598
1.99826311
1.99826311
1.9984567
1.9984567
1.99826311
1.99826311
1.99766598
1.99766598
1.99768937
1.99768937
1.99831244
1.99831244
1.99858699
1.99858699
1.99839489
1.99839489
1.99746839
1.99746839
1.99764631
1.99764631
1.99892352
1.99892352
1.99816935
1.99816935
1.99721073
1.99721073
1.99841452
1.99841452
1.99850052
1.99850052
1.99783388
1.99783388
1.99826815
1.99826815
1.99844009
1.99844009
1.99796036
1.99796036
1.99753974
1.99753974
1.99796036
1.99796036
1.99844009
1.99844009
1.99826815
1.99826815
1.99783388
1.99783388
1.99850052
1.99850052
1.99841452
1.99841452
1.99721073
1.99721073
1.99816935
1.99816935
1.99892352
1.99892352
1.99764631
1.99764631
1.99746839
1.99746839
1.99839489
1.99839489
1.99858699
1.99858699
1.99831244
1.99831244
1.99768937
1.99768937
1.99766598
1.99766598
1.99826311
1.99826311
1.9984567
1.9984567
1.99826311
1.99826311
1.99766598
1.99766598
1.99768937
1.99768937
1.99831244
1.99831244
1.99858699
1.99858699
1.99839489
1.99839489
1.99746839
1.99746839
1.99764631
1.99764631
1.99892352
1.99892352
1.99816935
1.99816935
1.99721073
1.99721073
1.99841452
1.99841452
1.99850052
1.99850052
1.99783388
1.99783388
1.99826815
1.99826815
1.99844009
1.99844009
1.99796036
1.99796036
1.99753974
1.99753974
1.99796036
1.99796036
1.99844009
1.99844009
1.99826815
1.99826815
1.99783388
1.99783388
1.99850052
1.99850052
1.99841452
1.99841452
1.99721073
1.99721073
1.99816935
1.99816935
1.99892352
1.99892352
1.99764631
1.99764631
1.99746839
1.99746839
1.99839489
1.99839489
1.99858699
1.99858699
1.99831244
1.99831244
1.99768937
1.99768937
1.99766598
1.99766598
1.99826311
1.99826311
1.9984567
1.9984567
1.99826311
1.99826311
1.99766598
1.99766598
1.99768937
1.99768937
1.99831244
1.99831244
1.99858699
1.99858699
1.99839489
1.99839489
1.99746839
1.99746839
1.99764631
1.99764631
1.99892352
1.99892352
1.99816935
1.99816935
1.99721073
1.99721073
1.99841452
1.99841452
1.99850052
1.99850052
1.99783388
1.99783388
1.99826815
1.99826815
1.99844009
1.99844009
1.99796036
1.99796036
1.99753974
1.99753974
1.99796036
1.99796036
1.99844009
1.99844009
1.99826815
1.99826815
1.99783388
1.99783388
1.99850052
1.99850052
1.99841452
1.99841452
1.99721073
1.99721073
1.99816935
1.99816935
1.99892352
1.99892352
1.99764631
1.99764631
1.99746839
1.99746839
1.99839489
1.99839489
1.99858699
1.99858699
1.99831244
1.99831244
1.99768937
1.99768937
1.99766598
1.99766598
1.99826311
1.99826311
0
0
0
0
0
0
0
0
0
0
0
0
0
0
0
0
0
0
0
0
0
0
0
0
0
0
0
0
0
0
0
0
0
0
0
0
0
0
0
0
0
0
0
0
0
0
0
0
0
0
0
0
0
0
0
0
0
0
0
0
0
0
0
0
0
0
0
0
0
0
0
0
0
0
0
0
0
0
0
0
0
0
0
0
0
0
0
0
0
0
0
0
0
0
0
0
0
0
0
0
0
0
0
0
0
0
0
0
0
0
0
0
0
0
0
0
0
0
0
0
0
0
0
0
0
0
0
0
0
0
0
0
0
0
0
0
0
0
0
0
0
0
0
0
0
1.9984567
1.9984567
1.99826311
1.99826311
1.99766598
1.99766598
1.99768937
1.99768937
1.99831244
1.99831244
1.99858699
1.99858699
1.99839489
1.99839489
1.99746839
1.99746839
1.99764631
1.99764631
1.99892352
1.99892352
1.99816935
1.99816935
1.99721073
1.99721073
1.99841452
1.99841452
1.99850052
1.99850052
1.99783388
1.99783388
1.99826815
1.99826815
1.99844009
1.99844009
1.99796036
1.99796036
1.99753974
1.99753974
1.99796036
1.99796036
1.99844009
1.99844009
1.99826815
1.99826815
1.99783388
1.99783388
1.99850052
1.99850052
1.99841452
1.99841452
1.99721073
1.99721073
1.99816935
1.99816935
1.99892352
1.99892352
1.99764631
1.99764631
1.99746839
1.99746839
1.99839489
1.99839489
1.99858699
1.99858699
1.99831244
1.99831244
1.99768937
1.99768937
1.99766598
1.99766598
1.99826311
1.99826311
1.9984567
1.9984567
1.99826311
1.99826311
1.99766598
1.99766598
1.99768937
1.99768937
1.99831244
1.99831244
1.99858699
1.99858699
1.99839489
1.99839489
1.99746839
1.99746839
1.99764631
1.99764631
1.99892352
1.99892352
1.99816935
1.99816935
1.99721073
1.99721073
1.99841452
1.99841452
1.99850052
1.99850052
1.99783388
1.99783388
1.99826815
1.99826815
1.99844009
1.99844009
1.99796036
1.99796036
1.99753974
1.99753974
1.99796036
1.99796036
1.99844009
1.99844009
1.99826815
1.99826815
1.99783388
1.99783388
1.99850052
1.99850052
1.99841452
1.99841452
1.99721073
1.99721073
1.99816935
1.99816935
1.99892352
1.99892352
1.99764631
1.99764631
1.99746839
1.99746839
1.99839489
1.99839489
1.99858699
1.99858699
1.99831244
1.99831244
1.99768937
1.99768937
1.99766598
1.99766598
1.99826311
1.99826311
1.9984567
1.9984567
1.99826311
1.99826311
1.99766598
1.99766598
1.99768937
1.99768937
1.99831244
1.99831244
1.99858699
1.99858699
1.99839489
1.99839489
1.99746839
1.99746839
1.99764631
1.99764631
1.99892352
1.99892352
1.99816935
1.99816935
1.99721073
1.99721073
1.99841452
1.99841452
1.99850052
1.99850052
1.99783388
1.99783388
1.99826815
1.99826815
1.99844009
1.99844009
1.99796036
1.99796036
1.99753974
1.99753974
1.99796036
1.99796036
1.99844009
1.99844009
1.99826815
1.99826815
1.99783388
1.99783388
1.99850052
1.99850052
1.99841452
1.99841452
1.99721073
1.99721073
1.99816935
1.99816935
1.99892352
1.99892352
1.99764631
1.99764631
1.99746839
1.99746839
1.99839489
1.99839489
1.99858699
1.99858699
1.99831244
1.99831244
1.99768937
1.99768937
1.99766598
1.99766598
1.99826311
1.99826311
1.9984567
1.9984567
1.99826311
1.99826311
1.99766598
1.99766598
1.99768937
1.99768937
1.99831244
1.99831244
1.99858699
1.99858699
1.99839489
1.99839489
1.99746839
1.99746839
1.99764631
1.99764631
1.99892352
1.99892352
1.99816935
1.99816935
1.99721073
1.99721073
1.99841452
1.99841452
1.99850052
1.99850052
1.99783388
1.99783388
1.99826815
1.99826815
1.99844009
1.99844009
1.99796036
1.99796036
1.99753974
1.99753974
1.99796036
1.99796036
1.99844009
1.99844009
1.99826815
1.99826815
1.99783388
1.99783388
1.99850052
1.99850052
1.99841452
1.99841452
1.99721073
1.99721073
1.99816935
1.99816935
1.99892352
1.99892352
1.99764631
1.99764631
1.99746839
1.99746839
1.99839489
1.99839489
1.99858699
1.99858699
1.99831244
1.99831244
1.99768937
1.99768937
1.99766598
1.99766598
1.99826311
1.99826311
)
;


// ************************************************************************* //
