/*--------------------------------*- C++ -*----------------------------------*\
| =========                 |                                                 |
| \\      /  F ield         | OpenFOAM: The Open Source CFD Toolbox           |
|  \\    /   O peration     | Version:  2206                                  |
|   \\  /    A nd           | Website:  www.openfoam.com                      |
|    \\/     M anipulation  |                                                 |
\*---------------------------------------------------------------------------*/
FoamFile
{
    version     2.0;
    format      ascii;
    arch        "LSB;label=32;scalar=64";
    class       triSurfacePointScalarField;
    location    "constant/triSurface";
    object      join.curvature;
}
// * * * * * * * * * * * * * * * * * * * * * * * * * * * * * * * * * * * * * //

dimensions      [0 1 0 0 0 0 0];

value           nonuniform List<scalar> 
1299
(
237.034989
280.317801
353.595459
235.772049
235.814464
240.300797
276.902778
236.402284
245.315877
275.056462
238.934938
251.39495
275.818941
243.680026
258.52486
280.112972
249.541305
266.670879
289.059441
256.903614
275.443268
301.308457
264.61681
283.441517
315.029908
273.652195
291.644086
328.465894
282.221393
298.839525
339.878683
290.821111
305.55139
347.986238
298.295186
310.713793
352.552309
305.390798
314.542011
353.369649
311.137622
317.104711
350.179064
315.516056
318.295801
342.739222
318.211789
317.844177
332.611688
319.924635
316.111219
319.726797
319.685075
313.524513
306.12632
318.299631
310.3048
292.704663
315.384773
305.996455
282.470455
312.228571
301.79242
276.741995
307.969671
297.797629
275.002364
303.733025
294.889462
276.013189
299.761713
293.421466
278.934236
297.036578
293.938271
283.3371
295.913051
296.335539
288.889923
296.775267
300.084411
295.160342
299.212223
304.409597
302.491658
303.022079
308.661627
310.153324
307.183173
312.674018
318.566643
311.441304
316.006932
326.279578
314.726355
317.602595
333.774667
317.828662
318.283918
340.854244
319.452668
317.154641
346.704284
320.002957
314.913841
350.68147
318.653161
310.776082
352.934563
316.304437
305.211636
353.418364
312.339613
298.560376
351.903052
306.997578
290.99436
348.009192
300.19691
282.479114
343.049805
292.997946
273.592916
336.375233
284.607857
265.08304
329.312328
276.127609
257.28269
320.935407
267.087333
249.623576
312.709953
259.315897
243.645405
304.962386
251.683255
238.949738
297.6533
245.396966
236.590848
290.850486
240.148581
285.012879
237.148455
285.639242
288.026983
290.316266
292.79204
295.471309
297.786562
300.05717
302.605819
305.243478
307.59968
309.803373
311.810033
313.830995
315.63609
317.132195
319.057248
320.639746
321.363994
322.044733
323.08379
324.123971
324.30347
324.058473
324.238888
324.099324
323.688279
323.279447
322.611071
321.723291
320.451132
319.174444
318.133618
316.967731
315.274866
313.667017
312.163138
310.384233
308.728765
306.819363
305.067279
303.449784
301.416489
299.377761
297.685497
296.120523
294.354964
292.555467
290.699859
289.045698
287.338124
285.557101
284.368752
283.011
281.11673
279.450656
278.328437
277.393111
275.921614
274.373573
273.433279
272.433403
271.456574
270.713379
269.999085
269.334498
268.599495
268.124399
268.076028
268.14167
267.98923
268.150549
268.601524
269.031112
269.760928
270.448781
271.456112
272.732762
273.789121
274.973148
276.58612
278.417371
280.154004
281.929414
283.706389
285.718266
287.704246
289.619161
292.118615
294.436319
296.149944
298.015211
300.360181
302.807948
304.552831
306.020849
307.957557
309.620381
311.044282
312.456349
313.58562
314.43283
314.823991
315.104573
315.471948
315.549165
314.930169
314.20616
313.382952
312.077777
310.684779
308.832855
306.937992
304.997979
302.475819
299.807676
297.367765
294.972822
292.324751
289.624875
286.89063
284.395534
281.943224
279.516923
277.794967
276.098938
274.057327
272.397214
271.437109
270.873482
270.02839
269.254422
269.213382
269.315833
269.575768
270.20529
270.978973
271.921736
272.875561
274.099557
275.785879
277.64865
279.332812
281.265837
283.491259
1409.09866
1063.07475
1407.59606
1067.46336
1403.14377
1071.85392
1396.52387
1076.86738
1396.0342
1082.52817
1395.42924
1088.39336
1394.45262
1094.39614
1393.01145
1100.3971
1390.92044
1107.51976
1388.01398
1115.74356
1384.14139
1123.17683
1379.0986
1130.84296
1372.63453
1140.06337
1364.58667
1148.78407
1354.74536
1157.11116
1342.84753
1165.99208
1328.75802
1174.48592
1312.2368
1182.21649
1293.17676
1189.46425
1271.35599
1196.57451
1246.73075
1202.97791
1219.17058
1208.14475
1188.70209
1212.21221
1155.25082
1215.93723
1118.90939
1218.18695
1079.82621
1218.66503
1038.03113
1219.38773
993.752543
1218.92507
947.319191
1216.1422
913.68779
1213.00381
906.018808
1209.58277
899.824684
1204.78423
895.30223
1198.82613
892.614416
1191.90583
892.247572
1184.61917
894.317878
1177.09199
898.375063
1168.79296
904.405284
1159.75961
912.458846
1150.13755
923.043966
1140.6003
936.113479
1131.18652
951.112304
1121.46884
967.803522
1111.41974
985.842246
1100.99058
1006.06722
1091.28645
1028.27532
1082.35172
1050.34151
1072.53969
1073.00356
1062.92465
1097.43258
1054.83401
1121.37232
1046.58655
1144.73967
1038.44647
1168.43699
1031.43694
1191.39139
1024.91573
1213.1825
1018.75592
1234.07019
1013.36343
1254.46364
1009.1854
1273.75499
1005.87735
1291.43405
1003.11314
1307.66732
1001.1
1323.3627
1000.52606
1337.29672
1000.50071
1349.1722
1000.75712
1361.28916
1002.96838
1372.05503
1005.91349
1380.18552
1008.54563
1387.91515
1012.43757
1395.3217
1017.58459
1401.09589
1022.91438
1405.45804
1028.49888
1408.54966
1034.35825
1411.03364
1040.88984
1412.96834
1048.0788
1413.63471
1055.30085
1412.97097
1062.43563
1411.03942
1069.46186
1408.55919
1076.87102
1405.47042
1084.59573
1401.11033
1092.07232
1395.33783
1099.1572
1387.93342
1105.63927
1380.20659
1112.53201
1372.07711
1119.81621
1361.31134
1125.65619
1349.19574
1131.04269
1337.32091
1137.34748
1323.38592
1142.67308
1307.69003
1147.19613
1291.45569
1151.98784
1273.7748
1156.23486
1254.48135
1159.7457
1234.08578
1162.89516
1213.19547
1166.16508
1191.40077
1169.0824
1168.4421
1171.25885
1144.7402
1172.88778
1121.36771
1174.77955
1097.42151
1175.85998
1072.98626
1175.85585
1050.31746
1176.71805
1028.24243
1177.0266
1006.02518
1175.64027
985.791505
1174.41143
967.742482
1173.34085
951.039582
1171.26282
936.028587
1168.3159
922.946878
1164.57779
912.349772
1160.57195
904.28308
1156.32009
898.238833
1151.22311
894.167383
1145.2523
892.083254
1138.49858
892.436917
1131.60374
895.110657
1124.58324
899.618497
1116.99492
905.798038
1108.84021
913.453666
1100.07403
947.167822
1091.87652
993.594137
1084.29743
1037.8662
1075.72791
1079.65717
1067.34153
1118.73602
1060.4868
1155.0731
1053.47945
1188.5215
1046.67711
1218.98774
1041.08584
1246.54646
1036.05653
1271.17151
1031.47335
1292.99303
1027.70575
1312.05467
1025.17591
1328.57849
1023.464
1342.67193
1022.23394
1354.57474
1021.6122
1364.42174
1022.25986
1372.47711
1023.17378
1378.94971
1024.11687
1384.00168
1026.69982
1387.88492
1029.61315
1390.80314
1031.84787
1392.9064
1034.97585
1394.36091
1038.93714
1395.35162
1042.7002
1395.97129
1046.37068
1396.43396
1050.00207
1403.08401
1054.06783
1407.56632
1058.6009
7.06853155
7.06852611
7.06853519
7.06853195
7.06852369
7.06853194
7.06853548
7.06852553
7.06852707
7.06853152
7.06853304
7.06852568
7.06851802
7.06853086
7.06854093
7.06853666
7.06852329
7.0685186
7.06852598
7.06853033
7.06853476
7.06853419
7.06852346
7.06852641
7.06853761
7.06852864
7.06852161
7.06853323
7.06852962
7.06852811
7.0685294
7.06853297
7.06853121
7.06852526
7.06852551
7.06852984
7.06853155
7.06852611
7.06853519
7.06853195
7.06852369
7.06853194
7.06853548
7.06852553
7.06852707
7.06853152
7.06853304
7.06852568
7.06851802
7.06853086
7.06854093
7.06853666
7.06852329
7.0685186
7.06852598
7.06853033
7.06853476
7.06853419
7.06852346
7.06852641
7.06853761
7.06852864
7.06852161
7.06853323
7.06852962
7.06852811
7.0685294
7.06853297
7.06853121
7.06852526
7.06852551
7.06852984
7.06853155
7.06852611
7.06853519
7.06853195
7.06852369
7.06853194
7.06853548
7.06852553
7.06852707
7.06853152
7.06853304
7.06852568
7.06851802
7.06853086
7.06854093
7.06853666
7.06852329
7.0685186
7.06852598
7.06853033
7.06853476
7.06853419
7.06852346
7.06852641
7.06853761
7.06852864
7.06852161
7.06853323
7.06852962
7.06852811
7.0685294
7.06853297
7.06853121
7.06852526
7.06852551
7.06852984
7.06853155
7.06852611
7.06853519
7.06853195
7.06852369
7.06853194
7.06853548
7.06852553
7.06852707
7.06853152
7.06853304
7.06852568
7.06851802
7.06853086
7.06854093
7.06853666
7.06852329
7.0685186
7.06852598
7.06853033
7.06853476
7.06853419
7.06852346
7.06852641
7.06853761
7.06852864
7.06852161
7.06853323
7.06852962
7.06852811
7.0685294
7.06853297
7.06853121
7.06852526
7.06852551
7.06852984
1283.5357
1270.64267
1414.38194
1297.93765
1309.52406
1259.72368
1246.77564
1273.26894
1237.94777
1228.19301
1251.72764
1221.09187
1216.77855
1233.90918
1212.28022
1211.27225
1220.98426
1214.31639
1211.23248
1216.79778
1227.39517
1216.71374
1223.05919
1246.41556
1228.27505
1238.2945
1266.89345
1244.57664
1257.02742
1285.63482
1264.00821
1276.10705
1300.87108
1283.69975
1292.49364
1309.9456
1301.0088
1304.60216
1312.17517
1316.15517
1311.59669
1308.34155
1327.76743
1311.96671
1298.32397
1335.46967
1307.23258
1284.64393
1339.59483
1297.9212
1269.50269
1339.04222
1285.382
1254.18701
1333.36856
1271.9334
1240.52236
1322.18235
1258.60815
1229.08558
1305.74454
1247.37571
1220.09259
1284.09802
1237.83615
1213.30125
1258.91247
1230.29779
1209.43582
1231.5327
1223.70041
1206.81236
1202.87602
1218.25734
1205.17572
1176.97359
1214.60304
1206.00183
1155.1714
1211.01589
1207.47615
1139.67458
1209.91189
1211.36957
1133.81017
1210.67209
1218.47258
1137.78006
1213.58943
1227.9493
1151.59289
1219.97111
1239.99915
1173.52214
1229.23331
1253.43754
1200.71846
1241.84541
1267.22584
1229.05235
1255.82093
1280.27548
1255.87727
1270.32734
1292.60367
1278.85
1283.67082
1303.4105
1296.62844
1295.57919
1313.6632
1311.46211
1306.9399
1325.53815
1324.63643
1317.76965
1338.90641
1337.81962
1330.47322
1354.13361
1352.44676
1345.16896
1369.33065
1366.74954
1360.45979
1380.96817
1378.22965
1374.17694
1386.59107
1383.9707
1383.00271
1384.30232
1381.89893
1385.29819
1373.94345
1370.70792
1379.32776
1356.47355
1351.65638
1366.02228
1334.61112
1326.72819
1346.25607
1298.01977
1322.44706
1207.56456
1194.27832
1414.38194
1215.06819
1206.3342
1211.27649
1222.14851
1218.61925
1215.70057
1250.03232
1224.17272
1222.61596
1276.81717
1230.64742
1232.70916
1299.83448
1238.12063
1245.14191
1317.97435
1247.79414
1259.85272
1330.63052
1259.05933
1275.43938
1338.02878
1272.4164
1290.29126
1340.10252
1285.93227
1302.50574
1337.84614
1298.43835
1310.83753
1331.50461
1307.71943
1312.86582
1320.75395
1312.51852
1308.02418
1307.11147
1312.15903
1297.191
1290.28882
1305.1772
1280.37901
1271.04419
1293.15621
1260.38587
1251.80346
1276.75301
1240.15636
1234.17491
1257.64623
1222.66535
1220.67038
1238.99682
1213.21885
1212.71324
1223.76589
1215.22794
1210.75559
1217.47185
1227.04241
1214.17681
1221.61607
1244.98467
1224.04409
1234.42726
1267.83495
1240.52554
1252.20159
1292.7353
1262.19537
1273.65955
1318.13135
1289.14752
1298.31896
1342.95147
1317.62614
1322.84746
1363.3167
1343.9766
1346.57089
1378.22576
1365.89435
1366.44312
1386.1939
1379.92913
1379.85383
1385.95233
1384.9234
1385.79997
1378.44394
1381.36942
1383.55984
1365.42087
1371.43469
1374.78791
1349.89204
1357.64213
1361.04797
1334.66985
1343.24415
1345.79794
1321.97157
1329.73423
1331.12046
1310.92585
1316.30935
1318.338
1300.28251
1302.58881
1307.52706
1289.50372
1285.87795
1296.206
1276.70748
1264.48624
1284.30148
1262.89332
1239.30731
1271.01849
1249.2818
1211.17143
1256.53288
1236.32082
1182.96845
1242.55571
1225.47583
1158.36874
1229.93376
1216.98654
1141.23494
1220.66217
1210.95305
1133.52572
1214.31584
1207.05861
1136.70257
1211.32348
1206.08649
1149.53007
1210.43081
1168.85724
1211.58458
1998.51874
1997.73718
1997.61418
1998.07088
1998.22087
1997.91523
1996.82737
1996.89256
1998.08712
1997.23089
1996.19527
1997.32134
1997.31855
1996.63948
1997.03546
1997.14146
1996.71884
1996.30952
1996.71848
1997.1828
1997.11779
1996.72507
1997.43595
1997.45955
1996.31331
1997.44255
1998.30531
1997.13096
1997.10275
1998.20975
1998.55388
1998.42474
1998.00187
1998.15326
1998.96935
1999.39712
1999.36249
1998.94374
1999.18088
1999.96543
2000.45096
2000.46478
1999.67711
1999.99453
2001.45261
2000.84958
1999.91097
2001.26162
2001.39533
2000.80748
2001.30021
2001.40587
2000.97733
2000.56928
2000.94157
2001.27581
2001.07793
2000.55129
2001.07145
2000.90163
1999.56772
2000.36812
2000.97131
1999.49627
1999.14599
1999.94049
1999.91608
1999.43628
1998.66979
1998.43794
1998.85818
1998.93853
1998.51874
1997.73718
1997.61418
1998.07088
1998.22087
1997.91523
1996.82737
1996.89256
1998.08712
1997.23089
1996.19527
1997.32134
1997.31855
1996.63948
1997.03546
1997.14146
1996.71884
1996.30952
1996.71848
1997.1828
1997.11779
1996.72507
1997.43595
1997.45955
1996.31331
1997.44255
1998.30531
1997.13096
1997.10275
1998.20975
1998.55388
1998.42474
1998.00187
1998.15326
1998.96935
1999.39712
1999.36249
1998.94374
1999.18088
1999.96543
2000.45096
2000.46478
1999.67711
1999.99453
2001.45261
2000.84958
1999.91097
2001.26162
2001.39533
2000.80748
2001.30021
2001.40587
2000.97733
2000.56928
2000.94157
2001.27581
2001.07793
2000.55129
2001.07145
2000.90163
1999.56772
2000.36812
2000.97131
1999.49627
1999.14599
1999.94049
1999.91608
1999.43628
1998.66979
1998.43794
1998.85818
1998.93853
1998.5403
1997.80048
1997.71829
1998.21357
1998.40151
1998.13351
1997.07937
1997.17743
1998.40409
1997.5756
1996.56429
1997.71438
1997.73024
1997.06575
1997.47648
1997.59013
1997.17568
1996.76644
1997.17599
1997.63364
1997.56252
1997.15572
1997.85276
1997.85752
1996.6871
1997.79366
1998.62854
1997.42196
1997.36078
1998.43314
1998.73866
1998.57064
1998.10737
1998.21707
1998.99051
1999.37552
1999.29816
1998.8368
1999.03232
1999.77638
2000.22313
2000.1983
1999.37621
1999.66071
2001.08649
2000.45575
1999.49473
2000.82112
2000.93614
2000.33475
2000.81335
2000.91324
2000.47807
2000.071
2000.44337
2000.78612
2000.59593
2000.08444
2000.61925
2000.46827
1999.15876
1999.98351
2000.61457
1999.17192
1998.8547
1999.68291
1999.69635
1999.25453
1998.52681
1998.33578
1998.79777
1998.9191
1998.5403
1997.80048
1997.71829
1998.21357
1998.40151
1998.13351
1997.07937
1997.17743
1998.40409
1997.5756
1996.56429
1997.71438
1997.73024
1997.06575
1997.47648
1997.59013
1997.17568
1996.76644
1997.17599
1997.63364
1997.56252
1997.15572
1997.85276
1997.85752
1996.6871
1997.79366
1998.62854
1997.42196
1997.36078
1998.43314
1998.73866
1998.57064
1998.10737
1998.21707
1998.99051
1999.37552
1999.29816
1998.8368
1999.03232
1999.77638
2000.22313
2000.1983
1999.37621
1999.66071
2001.08649
2000.45575
1999.49473
2000.82112
2000.93614
2000.33475
2000.81335
2000.91324
2000.47807
2000.071
2000.44337
2000.78612
2000.59593
2000.08444
2000.61925
2000.46827
1999.15876
1999.98351
2000.61457
1999.17192
1998.8547
1999.68291
1999.69635
1999.25453
1998.52681
1998.33578
1998.79777
1998.9191
)
;


// ************************************************************************* //
