/*--------------------------------*- C++ -*----------------------------------*\
| =========                 |                                                 |
| \\      /  F ield         | OpenFOAM: The Open Source CFD Toolbox           |
|  \\    /   O peration     | Version:  v1912                                 |
|   \\  /    A nd           | Website:  www.openfoam.com                      |
|    \\/     M anipulation  |                                                 |
\*---------------------------------------------------------------------------*/
FoamFile
{
    version     2.0;
    format      ascii;
    class       dictionary;
    object      fvSchemes;
}
// * * * * * * * * * * * * * * * * * * * * * * * * * * * * * * * * * * * * * //

ddtSchemes
{
    default         Euler bounded 0.5;
}

gradSchemes
{
    default         cellLimited Gauss linear 1;

    limited         cellLimited Gauss linear 1;
    grad(U)         $limited;
    grad(k)         $limited;
    grad(omega)     $limited;
}

divSchemes
{
    default         Gauss upwind;
    /*div(phi,U)      Gauss upwind;

    turbulence      Gauss upwind;
    energy          Gauss upwind;

    div(phi,k)      $turbulence;
    div(phi,omega)  $turbulence;
    div(phi,nuTilda) $turbulence;
    div(phi,e)      $energy;
    div(phi,h)      $energy;
    div(phi,K)      $energy;
    div(phi,Ekp)    $energy;
    div(phid,p)     Gauss upwind;
    div(phiv,p)     Gauss upwind;
    div((phi|interpolate(rho)),p) Gauss upwind;
    */
    div(((rho*nuEff)*dev2(T(grad(U)))))    Gauss linear;
}

laplacianSchemes
{
    default         Gauss linear limited 0.5;
}

interpolationSchemes
{
    default         linear;
}

snGradSchemes
{
    default         limited 0.5;
}

wallDist
{
    method meshWave;
}

// ************************************************************************* //
