/*--------------------------------*- C++ -*----------------------------------*\
| =========                 |                                                 |
| \\      /  F ield         | OpenFOAM: The Open Source CFD Toolbox           |
|  \\    /   O peration     | Version:  2206                                  |
|   \\  /    A nd           | Website:  www.openfoam.com                      |
|    \\/     M anipulation  |                                                 |
\*---------------------------------------------------------------------------*/
FoamFile
{
    version     2.0;
    format      ascii;
    arch        "LSB;label=32;scalar=64";
    class       extendedFeatureEdgeMesh;
    location    "constant/extendedFeatureEdgeMesh";
    object      electrods.extendedFeatureEdgeMesh;
}
// * * * * * * * * * * * * * * * * * * * * * * * * * * * * * * * * * * * * * //

// points

1334
(
(-0.498097003 -0.0435778983 -1)
(-0.499523997 -0.0218097009 -1)
(-0.5 0 -1)
(-0.499523997 0.0218097009 -1)
(-0.488148004 -0.108220004 -1)
(-0.492404014 -0.0868240967 -1)
(-0.495721996 -0.0652631 -1)
(-0.46984601 -0.171010002 -1)
(-0.47685799 -0.150353 -1)
(-0.482962996 -0.129409999 -1)
(-0.443504989 -0.230874002 -1)
(-0.453153998 -0.211309001 -1)
(-0.461939991 -0.191341996 -1)
(-0.409575999 -0.286787987 -1)
(-0.421696007 -0.268649995 -1)
(-0.433012992 -0.25 -1)
(-0.368638992 -0.337794989 -1)
(-0.38302201 -0.321393996 -1)
(-0.396676987 -0.304381013 -1)
(-0.321393996 -0.38302201 -1)
(-0.337794989 -0.368638992 -1)
(-0.353552997 -0.353552997 -1)
(-0.268649995 -0.421696007 -1)
(-0.286787987 -0.409575999 -1)
(-0.304381013 -0.396676987 -1)
(-0.211309001 -0.453153998 -1)
(-0.230874002 -0.443504989 -1)
(-0.25 -0.433012992 -1)
(-0.150353 -0.47685799 -1)
(-0.171010002 -0.46984601 -1)
(-0.191341996 -0.461939991 -1)
(-0.0868240967 -0.492404014 -1)
(-0.108220004 -0.488148004 -1)
(-0.129409999 -0.482962996 -1)
(-0.0218097009 -0.499523997 -1)
(-0.0435778983 -0.498097003 -1)
(-0.0652631 -0.495721996 -1)
(0.0435778983 -0.498097003 -1)
(0.0218097009 -0.499523997 -1)
(2.16839998e-16 -0.5 -1)
(0.108220004 -0.488148004 -1)
(0.0868240967 -0.492404014 -1)
(0.0652631 -0.495721996 -1)
(0.171010002 -0.46984601 -1)
(0.150353 -0.47685799 -1)
(0.129409999 -0.482962996 -1)
(0.230874002 -0.443504989 -1)
(0.211309001 -0.453153998 -1)
(0.191341996 -0.461939991 -1)
(0.286787987 -0.409575999 -1)
(0.268649995 -0.421696007 -1)
(0.25 -0.433012992 -1)
(0.337794989 -0.368638992 -1)
(0.321393996 -0.38302201 -1)
(0.304381013 -0.396676987 -1)
(0.38302201 -0.321393996 -1)
(0.368638992 -0.337794989 -1)
(0.353552997 -0.353552997 -1)
(0.421696007 -0.268649995 -1)
(0.409575999 -0.286787987 -1)
(0.396676987 -0.304381013 -1)
(0.453153998 -0.211309001 -1)
(0.443504989 -0.230874002 -1)
(0.433012992 -0.25 -1)
(0.47685799 -0.150353 -1)
(0.46984601 -0.171010002 -1)
(0.461939991 -0.191341996 -1)
(0.492404014 -0.0868240967 -1)
(0.488148004 -0.108220004 -1)
(0.482962996 -0.129409999 -1)
(0.499523997 -0.0218097009 -1)
(0.498097003 -0.0435778983 -1)
(0.495721996 -0.0652631 -1)
(0.498097003 0.0435778983 -1)
(0.499523997 0.0218097009 -1)
(0.5 1.45716997e-16 -1)
(0.488148004 0.108220004 -1)
(0.492404014 0.0868240967 -1)
(0.495721996 0.0652631 -1)
(0.46984601 0.171010002 -1)
(0.47685799 0.150353 -1)
(0.482962996 0.129409999 -1)
(0.443504989 0.230874002 -1)
(0.453153998 0.211309001 -1)
(0.461939991 0.191341996 -1)
(0.409575999 0.286787987 -1)
(0.421696007 0.268649995 -1)
(0.433012992 0.25 -1)
(0.368638992 0.337794989 -1)
(0.38302201 0.321393996 -1)
(0.396676987 0.304381013 -1)
(0.321393996 0.38302201 -1)
(0.337794989 0.368638992 -1)
(0.353552997 0.353552997 -1)
(0.268649995 0.421696007 -1)
(0.286787987 0.409575999 -1)
(0.304381013 0.396676987 -1)
(0.211309001 0.453153998 -1)
(0.230874002 0.443504989 -1)
(0.25 0.433012992 -1)
(0.150353 0.47685799 -1)
(0.171010002 0.46984601 -1)
(0.191341996 0.461939991 -1)
(0.0868240967 0.492404014 -1)
(0.108220004 0.488148004 -1)
(0.129409999 0.482962996 -1)
(0.0218097009 0.499523997 -1)
(0.0435778983 0.498097003 -1)
(0.0652631 0.495721996 -1)
(-0.0435778983 0.498097003 -1)
(-0.0218097009 0.499523997 -1)
(0 0.5 -1)
(-0.108220004 0.488148004 -1)
(-0.0868240967 0.492404014 -1)
(-0.0652631 0.495721996 -1)
(-0.171010002 0.46984601 -1)
(-0.150353 0.47685799 -1)
(-0.129409999 0.482962996 -1)
(-0.230874002 0.443504989 -1)
(-0.211309001 0.453153998 -1)
(-0.191341996 0.461939991 -1)
(-0.286787987 0.409575999 -1)
(-0.268649995 0.421696007 -1)
(-0.25 0.433012992 -1)
(-0.337794989 0.368638992 -1)
(-0.321393996 0.38302201 -1)
(-0.304381013 0.396676987 -1)
(-0.38302201 0.321393996 -1)
(-0.368638992 0.337794989 -1)
(-0.353552997 0.353552997 -1)
(-0.421696007 0.268649995 -1)
(-0.409575999 0.286787987 -1)
(-0.396676987 0.304381013 -1)
(-0.453153998 0.211309001 -1)
(-0.443504989 0.230874002 -1)
(-0.433012992 0.25 -1)
(-0.47685799 0.150353 -1)
(-0.46984601 0.171010002 -1)
(-0.461939991 0.191341996 -1)
(-0.492404014 0.0868240967 -1)
(-0.488148004 0.108220004 -1)
(-0.482962996 0.129409999 -1)
(-0.498097003 0.0435778983 -1)
(-0.495721996 0.0652631 -1)
(-0.499523997 0.0218097009 -1)
(-0.5 0 -1)
(-0.5 -1.22465003e-16 -11)
(-0.499523997 0.0218097009 -11)
(-0.498097003 0.0435778983 -1)
(-0.498097003 0.0435778983 -11)
(-0.495721996 0.0652631 -1)
(-0.495721996 0.0652631 -11)
(-0.492404014 0.0868240967 -1)
(-0.492404014 0.0868240967 -11)
(-0.488148004 0.108220004 -1)
(-0.488148004 0.108220004 -11)
(-0.482962996 0.129409999 -1)
(-0.482962996 0.129409999 -11)
(-0.47685799 0.150353 -1)
(-0.47685799 0.150353 -11)
(-0.46984601 0.171010002 -1)
(-0.46984601 0.171010002 -11)
(-0.461939991 0.191341996 -1)
(-0.461939991 0.191341996 -11)
(-0.453153998 0.211309001 -1)
(-0.453153998 0.211309001 -11)
(-0.443504989 0.230874002 -1)
(-0.443504989 0.230874002 -11)
(-0.433012992 0.25 -1)
(-0.433012992 0.25 -11)
(-0.421696007 0.268649995 -1)
(-0.421696007 0.268649995 -11)
(-0.409575999 0.286787987 -1)
(-0.409575999 0.286787987 -11)
(-0.396676987 0.304381013 -1)
(-0.396676987 0.304381013 -11)
(-0.38302201 0.321393996 -1)
(-0.38302201 0.321393996 -11)
(-0.368638992 0.337794989 -1)
(-0.368638992 0.337794989 -11)
(-0.353552997 0.353552997 -1)
(-0.353552997 0.353552997 -11)
(-0.337794989 0.368638992 -1)
(-0.337794989 0.368638992 -11)
(-0.321393996 0.38302201 -1)
(-0.321393996 0.38302201 -11)
(-0.304381013 0.396676987 -1)
(-0.304381013 0.396676987 -11)
(-0.286787987 0.409575999 -1)
(-0.286787987 0.409575999 -11)
(-0.268649995 0.421696007 -1)
(-0.268649995 0.421696007 -11)
(-0.25 0.433012992 -1)
(-0.25 0.433012992 -11)
(-0.230874002 0.443504989 -1)
(-0.230874002 0.443504989 -11)
(-0.211309001 0.453153998 -1)
(-0.211309001 0.453153998 -11)
(-0.191341996 0.461939991 -1)
(-0.191341996 0.461939991 -11)
(-0.171010002 0.46984601 -1)
(-0.171010002 0.46984601 -11)
(-0.150353 0.47685799 -1)
(-0.150353 0.47685799 -11)
(-0.129409999 0.482962996 -1)
(-0.129409999 0.482962996 -11)
(-0.108220004 0.488148004 -1)
(-0.108220004 0.488148004 -11)
(-0.0868240967 0.492404014 -1)
(-0.0868240967 0.492404014 -11)
(-0.0652631 0.495721996 -1)
(-0.0652631 0.495721996 -11)
(-0.0435778983 0.498097003 -1)
(-0.0435778983 0.498097003 -11)
(-0.0218097009 0.499523997 -1)
(-0.0218097009 0.499523997 -11)
(-3.06162011e-17 0.5 -1)
(-3.06162011e-17 0.5 -11)
(0.0218097009 0.499523997 -1)
(0.0218097009 0.499523997 -11)
(0.0435778983 0.498097003 -1)
(0.0435778983 0.498097003 -11)
(0.0652631 0.495721996 -1)
(0.0652631 0.495721996 -11)
(0.0868240967 0.492404014 -1)
(0.0868240967 0.492404014 -11)
(0.108220004 0.488148004 -1)
(0.108220004 0.488148004 -11)
(0.129409999 0.482962996 -1)
(0.129409999 0.482962996 -11)
(0.150353 0.47685799 -1)
(0.150353 0.47685799 -11)
(0.171010002 0.46984601 -1)
(0.171010002 0.46984601 -11)
(0.191341996 0.461939991 -1)
(0.191341996 0.461939991 -11)
(0.211309001 0.453153998 -1)
(0.211309001 0.453153998 -11)
(0.230874002 0.443504989 -1)
(0.230874002 0.443504989 -11)
(0.25 0.433012992 -1)
(0.25 0.433012992 -11)
(0.268649995 0.421696007 -1)
(0.268649995 0.421696007 -11)
(0.286787987 0.409575999 -1)
(0.286787987 0.409575999 -11)
(0.304381013 0.396676987 -1)
(0.304381013 0.396676987 -11)
(0.321393996 0.38302201 -1)
(0.321393996 0.38302201 -11)
(0.337794989 0.368638992 -1)
(0.337794989 0.368638992 -11)
(0.353552997 0.353552997 -1)
(0.353552997 0.353552997 -11)
(0.368638992 0.337794989 -1)
(0.368638992 0.337794989 -11)
(0.38302201 0.321393996 -1)
(0.38302201 0.321393996 -11)
(0.396676987 0.304381013 -1)
(0.396676987 0.304381013 -11)
(0.409575999 0.286787987 -1)
(0.409575999 0.286787987 -11)
(0.421696007 0.268649995 -1)
(0.421696007 0.268649995 -11)
(0.433012992 0.25 -1)
(0.433012992 0.25 -11)
(0.443504989 0.230874002 -1)
(0.443504989 0.230874002 -11)
(0.453153998 0.211309001 -1)
(0.453153998 0.211309001 -11)
(0.461939991 0.191341996 -1)
(0.461939991 0.191341996 -11)
(0.46984601 0.171010002 -1)
(0.46984601 0.171010002 -11)
(0.47685799 0.150353 -1)
(0.47685799 0.150353 -11)
(0.482962996 0.129409999 -1)
(0.482962996 0.129409999 -11)
(0.488148004 0.108220004 -1)
(0.488148004 0.108220004 -11)
(0.492404014 0.0868240967 -1)
(0.492404014 0.0868240967 -11)
(0.495721996 0.0652631 -1)
(0.495721996 0.0652631 -11)
(0.498097003 0.0435778983 -1)
(0.498097003 0.0435778983 -11)
(0.499523997 0.0218097009 -1)
(0.499523997 0.0218097009 -11)
(0.5 6.12323029e-17 -1)
(0.5 6.12323029e-17 -11)
(0.499523997 -0.0218097009 -1)
(0.499523997 -0.0218097009 -11)
(0.498097003 -0.0435778983 -1)
(0.498097003 -0.0435778983 -11)
(0.495721996 -0.0652631 -1)
(0.495721996 -0.0652631 -11)
(0.492404014 -0.0868240967 -1)
(0.492404014 -0.0868240967 -11)
(0.488148004 -0.108220004 -1)
(0.488148004 -0.108220004 -11)
(0.482962996 -0.129409999 -1)
(0.482962996 -0.129409999 -11)
(0.47685799 -0.150353 -1)
(0.47685799 -0.150353 -11)
(0.46984601 -0.171010002 -1)
(0.46984601 -0.171010002 -11)
(0.461939991 -0.191341996 -1)
(0.461939991 -0.191341996 -11)
(0.453153998 -0.211309001 -1)
(0.453153998 -0.211309001 -11)
(0.443504989 -0.230874002 -1)
(0.443504989 -0.230874002 -11)
(0.433012992 -0.25 -1)
(0.433012992 -0.25 -11)
(0.421696007 -0.268649995 -1)
(0.421696007 -0.268649995 -11)
(0.409575999 -0.286787987 -1)
(0.409575999 -0.286787987 -11)
(0.396676987 -0.304381013 -1)
(0.396676987 -0.304381013 -11)
(0.38302201 -0.321393996 -1)
(0.38302201 -0.321393996 -11)
(0.368638992 -0.337794989 -1)
(0.368638992 -0.337794989 -11)
(0.353552997 -0.353552997 -1)
(0.353552997 -0.353552997 -11)
(0.337794989 -0.368638992 -1)
(0.337794989 -0.368638992 -11)
(0.321393996 -0.38302201 -1)
(0.321393996 -0.38302201 -11)
(0.304381013 -0.396676987 -1)
(0.304381013 -0.396676987 -11)
(0.286787987 -0.409575999 -1)
(0.286787987 -0.409575999 -11)
(0.268649995 -0.421696007 -1)
(0.268649995 -0.421696007 -11)
(0.25 -0.433012992 -1)
(0.25 -0.433012992 -11)
(0.230874002 -0.443504989 -1)
(0.230874002 -0.443504989 -11)
(0.211309001 -0.453153998 -1)
(0.211309001 -0.453153998 -11)
(0.191341996 -0.461939991 -1)
(0.191341996 -0.461939991 -11)
(0.171010002 -0.46984601 -1)
(0.171010002 -0.46984601 -11)
(0.150353 -0.47685799 -1)
(0.150353 -0.47685799 -11)
(0.129409999 -0.482962996 -1)
(0.129409999 -0.482962996 -11)
(0.108220004 -0.488148004 -1)
(0.108220004 -0.488148004 -11)
(0.0868240967 -0.492404014 -1)
(0.0868240967 -0.492404014 -11)
(0.0652631 -0.495721996 -1)
(0.0652631 -0.495721996 -11)
(0.0435778983 -0.498097003 -1)
(0.0435778983 -0.498097003 -11)
(0.0218097009 -0.499523997 -1)
(0.0218097009 -0.499523997 -11)
(9.18485007e-17 -0.5 -1)
(9.18485007e-17 -0.5 -11)
(-0.0218097009 -0.499523997 -1)
(-0.0218097009 -0.499523997 -11)
(-0.0435778983 -0.498097003 -1)
(-0.0435778983 -0.498097003 -11)
(-0.0652631 -0.495721996 -1)
(-0.0652631 -0.495721996 -11)
(-0.0868240967 -0.492404014 -1)
(-0.0868240967 -0.492404014 -11)
(-0.108220004 -0.488148004 -1)
(-0.108220004 -0.488148004 -11)
(-0.129409999 -0.482962996 -1)
(-0.129409999 -0.482962996 -11)
(-0.150353 -0.47685799 -1)
(-0.150353 -0.47685799 -11)
(-0.171010002 -0.46984601 -1)
(-0.171010002 -0.46984601 -11)
(-0.191341996 -0.461939991 -1)
(-0.191341996 -0.461939991 -11)
(-0.211309001 -0.453153998 -1)
(-0.211309001 -0.453153998 -11)
(-0.230874002 -0.443504989 -1)
(-0.230874002 -0.443504989 -11)
(-0.25 -0.433012992 -1)
(-0.25 -0.433012992 -11)
(-0.268649995 -0.421696007 -1)
(-0.268649995 -0.421696007 -11)
(-0.286787987 -0.409575999 -1)
(-0.286787987 -0.409575999 -11)
(-0.304381013 -0.396676987 -1)
(-0.304381013 -0.396676987 -11)
(-0.321393996 -0.38302201 -1)
(-0.321393996 -0.38302201 -11)
(-0.337794989 -0.368638992 -1)
(-0.337794989 -0.368638992 -11)
(-0.353552997 -0.353552997 -1)
(-0.353552997 -0.353552997 -11)
(-0.368638992 -0.337794989 -1)
(-0.368638992 -0.337794989 -11)
(-0.38302201 -0.321393996 -1)
(-0.38302201 -0.321393996 -11)
(-0.396676987 -0.304381013 -1)
(-0.396676987 -0.304381013 -11)
(-0.409575999 -0.286787987 -1)
(-0.409575999 -0.286787987 -11)
(-0.421696007 -0.268649995 -1)
(-0.421696007 -0.268649995 -11)
(-0.433012992 -0.25 -1)
(-0.433012992 -0.25 -11)
(-0.443504989 -0.230874002 -1)
(-0.443504989 -0.230874002 -11)
(-0.453153998 -0.211309001 -1)
(-0.453153998 -0.211309001 -11)
(-0.461939991 -0.191341996 -1)
(-0.461939991 -0.191341996 -11)
(-0.46984601 -0.171010002 -1)
(-0.46984601 -0.171010002 -11)
(-0.47685799 -0.150353 -1)
(-0.47685799 -0.150353 -11)
(-0.482962996 -0.129409999 -1)
(-0.482962996 -0.129409999 -11)
(-0.488148004 -0.108220004 -1)
(-0.488148004 -0.108220004 -11)
(-0.492404014 -0.0868240967 -1)
(-0.492404014 -0.0868240967 -11)
(-0.495721996 -0.0652631 -1)
(-0.495721996 -0.0652631 -11)
(-0.498097003 -0.0435778983 -1)
(-0.498097003 -0.0435778983 -11)
(-0.499523997 -0.0218097009 -1)
(-0.499523997 -0.0218097009 -11)
(-0.498097003 0.0435778983 1)
(-0.499523997 0.0218097009 1)
(-0.5 0 1)
(-0.499523997 -0.0218097009 1)
(-0.488148004 0.108220004 1)
(-0.492404014 0.0868240967 1)
(-0.495721996 0.0652631 1)
(-0.46984601 0.171010002 1)
(-0.47685799 0.150353 1)
(-0.482962996 0.129409999 1)
(-0.443504989 0.230874002 1)
(-0.453153998 0.211309001 1)
(-0.461939991 0.191341996 1)
(-0.409575999 0.286787987 1)
(-0.421696007 0.268649995 1)
(-0.433012992 0.25 1)
(-0.368638992 0.337794989 1)
(-0.38302201 0.321393996 1)
(-0.396676987 0.304381013 1)
(-0.321393996 0.38302201 1)
(-0.337794989 0.368638992 1)
(-0.353552997 0.353552997 1)
(-0.268649995 0.421696007 1)
(-0.286787987 0.409575999 1)
(-0.304381013 0.396676987 1)
(-0.211309001 0.453153998 1)
(-0.230874002 0.443504989 1)
(-0.25 0.433012992 1)
(-0.150353 0.47685799 1)
(-0.171010002 0.46984601 1)
(-0.191341996 0.461939991 1)
(-0.0868240967 0.492404014 1)
(-0.108220004 0.488148004 1)
(-0.129409999 0.482962996 1)
(-0.0218097009 0.499523997 1)
(-0.0435778983 0.498097003 1)
(-0.0652631 0.495721996 1)
(0.0435778983 0.498097003 1)
(0.0218097009 0.499523997 1)
(0 0.5 1)
(0.108220004 0.488148004 1)
(0.0868240967 0.492404014 1)
(0.0652631 0.495721996 1)
(0.171010002 0.46984601 1)
(0.150353 0.47685799 1)
(0.129409999 0.482962996 1)
(0.230874002 0.443504989 1)
(0.211309001 0.453153998 1)
(0.191341996 0.461939991 1)
(0.286787987 0.409575999 1)
(0.268649995 0.421696007 1)
(0.25 0.433012992 1)
(0.337794989 0.368638992 1)
(0.321393996 0.38302201 1)
(0.304381013 0.396676987 1)
(0.38302201 0.321393996 1)
(0.368638992 0.337794989 1)
(0.353552997 0.353552997 1)
(0.421696007 0.268649995 1)
(0.409575999 0.286787987 1)
(0.396676987 0.304381013 1)
(0.453153998 0.211309001 1)
(0.443504989 0.230874002 1)
(0.433012992 0.25 1)
(0.47685799 0.150353 1)
(0.46984601 0.171010002 1)
(0.461939991 0.191341996 1)
(0.492404014 0.0868240967 1)
(0.488148004 0.108220004 1)
(0.482962996 0.129409999 1)
(0.499523997 0.0218097009 1)
(0.498097003 0.0435778983 1)
(0.495721996 0.0652631 1)
(0.498097003 -0.0435778983 1)
(0.499523997 -0.0218097009 1)
(0.5 1.45716997e-16 1)
(0.488148004 -0.108220004 1)
(0.492404014 -0.0868240967 1)
(0.495721996 -0.0652631 1)
(0.46984601 -0.171010002 1)
(0.47685799 -0.150353 1)
(0.482962996 -0.129409999 1)
(0.443504989 -0.230874002 1)
(0.453153998 -0.211309001 1)
(0.461939991 -0.191341996 1)
(0.409575999 -0.286787987 1)
(0.421696007 -0.268649995 1)
(0.433012992 -0.25 1)
(0.368638992 -0.337794989 1)
(0.38302201 -0.321393996 1)
(0.396676987 -0.304381013 1)
(0.321393996 -0.38302201 1)
(0.337794989 -0.368638992 1)
(0.353552997 -0.353552997 1)
(0.268649995 -0.421696007 1)
(0.286787987 -0.409575999 1)
(0.304381013 -0.396676987 1)
(0.211309001 -0.453153998 1)
(0.230874002 -0.443504989 1)
(0.25 -0.433012992 1)
(0.150353 -0.47685799 1)
(0.171010002 -0.46984601 1)
(0.191341996 -0.461939991 1)
(0.0868240967 -0.492404014 1)
(0.108220004 -0.488148004 1)
(0.129409999 -0.482962996 1)
(0.0218097009 -0.499523997 1)
(0.0435778983 -0.498097003 1)
(0.0652631 -0.495721996 1)
(-0.0435778983 -0.498097003 1)
(-0.0218097009 -0.499523997 1)
(2.16839998e-16 -0.5 1)
(-0.108220004 -0.488148004 1)
(-0.0868240967 -0.492404014 1)
(-0.0652631 -0.495721996 1)
(-0.171010002 -0.46984601 1)
(-0.150353 -0.47685799 1)
(-0.129409999 -0.482962996 1)
(-0.230874002 -0.443504989 1)
(-0.211309001 -0.453153998 1)
(-0.191341996 -0.461939991 1)
(-0.286787987 -0.409575999 1)
(-0.268649995 -0.421696007 1)
(-0.25 -0.433012992 1)
(-0.337794989 -0.368638992 1)
(-0.321393996 -0.38302201 1)
(-0.304381013 -0.396676987 1)
(-0.38302201 -0.321393996 1)
(-0.368638992 -0.337794989 1)
(-0.353552997 -0.353552997 1)
(-0.421696007 -0.268649995 1)
(-0.409575999 -0.286787987 1)
(-0.396676987 -0.304381013 1)
(-0.453153998 -0.211309001 1)
(-0.443504989 -0.230874002 1)
(-0.433012992 -0.25 1)
(-0.47685799 -0.150353 1)
(-0.46984601 -0.171010002 1)
(-0.461939991 -0.191341996 1)
(-0.492404014 -0.0868240967 1)
(-0.488148004 -0.108220004 1)
(-0.482962996 -0.129409999 1)
(-0.498097003 -0.0435778983 1)
(-0.495721996 -0.0652631 1)
(-0.499523997 -0.0218097009 1)
(-0.5 0 1)
(-0.5 1.22465003e-16 11)
(-0.499523997 -0.0218097009 11)
(-0.498097003 -0.0435778983 1)
(-0.498097003 -0.0435778983 11)
(-0.495721996 -0.0652631 1)
(-0.495721996 -0.0652631 11)
(-0.492404014 -0.0868240967 1)
(-0.492404014 -0.0868240967 11)
(-0.488148004 -0.108220004 1)
(-0.488148004 -0.108220004 11)
(-0.482962996 -0.129409999 1)
(-0.482962996 -0.129409999 11)
(-0.47685799 -0.150353 1)
(-0.47685799 -0.150353 11)
(-0.46984601 -0.171010002 1)
(-0.46984601 -0.171010002 11)
(-0.461939991 -0.191341996 1)
(-0.461939991 -0.191341996 11)
(-0.453153998 -0.211309001 1)
(-0.453153998 -0.211309001 11)
(-0.443504989 -0.230874002 1)
(-0.443504989 -0.230874002 11)
(-0.433012992 -0.25 1)
(-0.433012992 -0.25 11)
(-0.421696007 -0.268649995 1)
(-0.421696007 -0.268649995 11)
(-0.409575999 -0.286787987 1)
(-0.409575999 -0.286787987 11)
(-0.396676987 -0.304381013 1)
(-0.396676987 -0.304381013 11)
(-0.38302201 -0.321393996 1)
(-0.38302201 -0.321393996 11)
(-0.368638992 -0.337794989 1)
(-0.368638992 -0.337794989 11)
(-0.353552997 -0.353552997 1)
(-0.353552997 -0.353552997 11)
(-0.337794989 -0.368638992 1)
(-0.337794989 -0.368638992 11)
(-0.321393996 -0.38302201 1)
(-0.321393996 -0.38302201 11)
(-0.304381013 -0.396676987 1)
(-0.304381013 -0.396676987 11)
(-0.286787987 -0.409575999 1)
(-0.286787987 -0.409575999 11)
(-0.268649995 -0.421696007 1)
(-0.268649995 -0.421696007 11)
(-0.25 -0.433012992 1)
(-0.25 -0.433012992 11)
(-0.230874002 -0.443504989 1)
(-0.230874002 -0.443504989 11)
(-0.211309001 -0.453153998 1)
(-0.211309001 -0.453153998 11)
(-0.191341996 -0.461939991 1)
(-0.191341996 -0.461939991 11)
(-0.171010002 -0.46984601 1)
(-0.171010002 -0.46984601 11)
(-0.150353 -0.47685799 1)
(-0.150353 -0.47685799 11)
(-0.129409999 -0.482962996 1)
(-0.129409999 -0.482962996 11)
(-0.108220004 -0.488148004 1)
(-0.108220004 -0.488148004 11)
(-0.0868240967 -0.492404014 1)
(-0.0868240967 -0.492404014 11)
(-0.0652631 -0.495721996 1)
(-0.0652631 -0.495721996 11)
(-0.0435778983 -0.498097003 1)
(-0.0435778983 -0.498097003 11)
(-0.0218097009 -0.499523997 1)
(-0.0218097009 -0.499523997 11)
(-3.06162011e-17 -0.5 1)
(-3.06162011e-17 -0.5 11)
(0.0218097009 -0.499523997 1)
(0.0218097009 -0.499523997 11)
(0.0435778983 -0.498097003 1)
(0.0435778983 -0.498097003 11)
(0.0652631 -0.495721996 1)
(0.0652631 -0.495721996 11)
(0.0868240967 -0.492404014 1)
(0.0868240967 -0.492404014 11)
(0.108220004 -0.488148004 1)
(0.108220004 -0.488148004 11)
(0.129409999 -0.482962996 1)
(0.129409999 -0.482962996 11)
(0.150353 -0.47685799 1)
(0.150353 -0.47685799 11)
(0.171010002 -0.46984601 1)
(0.171010002 -0.46984601 11)
(0.191341996 -0.461939991 1)
(0.191341996 -0.461939991 11)
(0.211309001 -0.453153998 1)
(0.211309001 -0.453153998 11)
(0.230874002 -0.443504989 1)
(0.230874002 -0.443504989 11)
(0.25 -0.433012992 1)
(0.25 -0.433012992 11)
(0.268649995 -0.421696007 1)
(0.268649995 -0.421696007 11)
(0.286787987 -0.409575999 1)
(0.286787987 -0.409575999 11)
(0.304381013 -0.396676987 1)
(0.304381013 -0.396676987 11)
(0.321393996 -0.38302201 1)
(0.321393996 -0.38302201 11)
(0.337794989 -0.368638992 1)
(0.337794989 -0.368638992 11)
(0.353552997 -0.353552997 1)
(0.353552997 -0.353552997 11)
(0.368638992 -0.337794989 1)
(0.368638992 -0.337794989 11)
(0.38302201 -0.321393996 1)
(0.38302201 -0.321393996 11)
(0.396676987 -0.304381013 1)
(0.396676987 -0.304381013 11)
(0.409575999 -0.286787987 1)
(0.409575999 -0.286787987 11)
(0.421696007 -0.268649995 1)
(0.421696007 -0.268649995 11)
(0.433012992 -0.25 1)
(0.433012992 -0.25 11)
(0.443504989 -0.230874002 1)
(0.443504989 -0.230874002 11)
(0.453153998 -0.211309001 1)
(0.453153998 -0.211309001 11)
(0.461939991 -0.191341996 1)
(0.461939991 -0.191341996 11)
(0.46984601 -0.171010002 1)
(0.46984601 -0.171010002 11)
(0.47685799 -0.150353 1)
(0.47685799 -0.150353 11)
(0.482962996 -0.129409999 1)
(0.482962996 -0.129409999 11)
(0.488148004 -0.108220004 1)
(0.488148004 -0.108220004 11)
(0.492404014 -0.0868240967 1)
(0.492404014 -0.0868240967 11)
(0.495721996 -0.0652631 1)
(0.495721996 -0.0652631 11)
(0.498097003 -0.0435778983 1)
(0.498097003 -0.0435778983 11)
(0.499523997 -0.0218097009 1)
(0.499523997 -0.0218097009 11)
(0.5 -6.12323029e-17 1)
(0.5 -6.12323029e-17 11)
(0.499523997 0.0218097009 1)
(0.499523997 0.0218097009 11)
(0.498097003 0.0435778983 1)
(0.498097003 0.0435778983 11)
(0.495721996 0.0652631 1)
(0.495721996 0.0652631 11)
(0.492404014 0.0868240967 1)
(0.492404014 0.0868240967 11)
(0.488148004 0.108220004 1)
(0.488148004 0.108220004 11)
(0.482962996 0.129409999 1)
(0.482962996 0.129409999 11)
(0.47685799 0.150353 1)
(0.47685799 0.150353 11)
(0.46984601 0.171010002 1)
(0.46984601 0.171010002 11)
(0.461939991 0.191341996 1)
(0.461939991 0.191341996 11)
(0.453153998 0.211309001 1)
(0.453153998 0.211309001 11)
(0.443504989 0.230874002 1)
(0.443504989 0.230874002 11)
(0.433012992 0.25 1)
(0.433012992 0.25 11)
(0.421696007 0.268649995 1)
(0.421696007 0.268649995 11)
(0.409575999 0.286787987 1)
(0.409575999 0.286787987 11)
(0.396676987 0.304381013 1)
(0.396676987 0.304381013 11)
(0.38302201 0.321393996 1)
(0.38302201 0.321393996 11)
(0.368638992 0.337794989 1)
(0.368638992 0.337794989 11)
(0.353552997 0.353552997 1)
(0.353552997 0.353552997 11)
(0.337794989 0.368638992 1)
(0.337794989 0.368638992 11)
(0.321393996 0.38302201 1)
(0.321393996 0.38302201 11)
(0.304381013 0.396676987 1)
(0.304381013 0.396676987 11)
(0.286787987 0.409575999 1)
(0.286787987 0.409575999 11)
(0.268649995 0.421696007 1)
(0.268649995 0.421696007 11)
(0.25 0.433012992 1)
(0.25 0.433012992 11)
(0.230874002 0.443504989 1)
(0.230874002 0.443504989 11)
(0.211309001 0.453153998 1)
(0.211309001 0.453153998 11)
(0.191341996 0.461939991 1)
(0.191341996 0.461939991 11)
(0.171010002 0.46984601 1)
(0.171010002 0.46984601 11)
(0.150353 0.47685799 1)
(0.150353 0.47685799 11)
(0.129409999 0.482962996 1)
(0.129409999 0.482962996 11)
(0.108220004 0.488148004 1)
(0.108220004 0.488148004 11)
(0.0868240967 0.492404014 1)
(0.0868240967 0.492404014 11)
(0.0652631 0.495721996 1)
(0.0652631 0.495721996 11)
(0.0435778983 0.498097003 1)
(0.0435778983 0.498097003 11)
(0.0218097009 0.499523997 1)
(0.0218097009 0.499523997 11)
(9.18485007e-17 0.5 1)
(9.18485007e-17 0.5 11)
(-0.0218097009 0.499523997 1)
(-0.0218097009 0.499523997 11)
(-0.0435778983 0.498097003 1)
(-0.0435778983 0.498097003 11)
(-0.0652631 0.495721996 1)
(-0.0652631 0.495721996 11)
(-0.0868240967 0.492404014 1)
(-0.0868240967 0.492404014 11)
(-0.108220004 0.488148004 1)
(-0.108220004 0.488148004 11)
(-0.129409999 0.482962996 1)
(-0.129409999 0.482962996 11)
(-0.150353 0.47685799 1)
(-0.150353 0.47685799 11)
(-0.171010002 0.46984601 1)
(-0.171010002 0.46984601 11)
(-0.191341996 0.461939991 1)
(-0.191341996 0.461939991 11)
(-0.211309001 0.453153998 1)
(-0.211309001 0.453153998 11)
(-0.230874002 0.443504989 1)
(-0.230874002 0.443504989 11)
(-0.25 0.433012992 1)
(-0.25 0.433012992 11)
(-0.268649995 0.421696007 1)
(-0.268649995 0.421696007 11)
(-0.286787987 0.409575999 1)
(-0.286787987 0.409575999 11)
(-0.304381013 0.396676987 1)
(-0.304381013 0.396676987 11)
(-0.321393996 0.38302201 1)
(-0.321393996 0.38302201 11)
(-0.337794989 0.368638992 1)
(-0.337794989 0.368638992 11)
(-0.353552997 0.353552997 1)
(-0.353552997 0.353552997 11)
(-0.368638992 0.337794989 1)
(-0.368638992 0.337794989 11)
(-0.38302201 0.321393996 1)
(-0.38302201 0.321393996 11)
(-0.396676987 0.304381013 1)
(-0.396676987 0.304381013 11)
(-0.409575999 0.286787987 1)
(-0.409575999 0.286787987 11)
(-0.421696007 0.268649995 1)
(-0.421696007 0.268649995 11)
(-0.433012992 0.25 1)
(-0.433012992 0.25 11)
(-0.443504989 0.230874002 1)
(-0.443504989 0.230874002 11)
(-0.453153998 0.211309001 1)
(-0.453153998 0.211309001 11)
(-0.461939991 0.191341996 1)
(-0.461939991 0.191341996 11)
(-0.46984601 0.171010002 1)
(-0.46984601 0.171010002 11)
(-0.47685799 0.150353 1)
(-0.47685799 0.150353 11)
(-0.482962996 0.129409999 1)
(-0.482962996 0.129409999 11)
(-0.488148004 0.108220004 1)
(-0.488148004 0.108220004 11)
(-0.492404014 0.0868240967 1)
(-0.492404014 0.0868240967 11)
(-0.495721996 0.0652631 1)
(-0.495721996 0.0652631 11)
(-0.498097003 0.0435778983 1)
(-0.498097003 0.0435778983 11)
(-0.499523997 0.0218097009 1)
(-0.499523997 0.0218097009 11)
(-0.499523997 -0.0218097009 -1)
(-0.498097003 -0.0435778983 -1)
(-0.5 0 -1)
(-0.492404014 -0.0868240967 -1)
(-0.495721996 -0.0652631 -1)
(-0.443504989 -0.230874002 -1)
(-0.461939991 -0.191341996 -1)
(-0.368638992 -0.337794989 -1)
(-0.396676987 -0.304381013 -1)
(-0.211309001 -0.453153998 -1)
(-0.25 -0.433012992 -1)
(-0.150353 -0.47685799 -1)
(-0.191341996 -0.461939991 -1)
(-0.0868240967 -0.492404014 -1)
(-0.129409999 -0.482962996 -1)
(-0.0435778983 -0.498097003 -1)
(-0.0218097009 -0.499523997 -1)
(-0.0652631 -0.495721996 -1)
(0.0218097009 -0.499523997 -1)
(0.0435778983 -0.498097003 -1)
(2.16839998e-16 -0.5 -1)
(0.0868240967 -0.492404014 -1)
(0.0652631 -0.495721996 -1)
(0.230874002 -0.443504989 -1)
(0.191341996 -0.461939991 -1)
(0.304381013 -0.396676987 -1)
(0.433012992 -0.25 -1)
(0.461939991 -0.191341996 -1)
(0.492404014 -0.0868240967 -1)
(0.482962996 -0.129409999 -1)
(0.498097003 -0.0435778983 -1)
(0.499523997 -0.0218097009 -1)
(0.495721996 -0.0652631 -1)
(0.499523997 0.0218097009 -1)
(0.5 1.45716997e-16 -1)
(0.492404014 0.0868240967 -1)
(0.488148004 0.108220004 -1)
(0.495721996 0.0652631 -1)
(0.46984601 0.171010002 -1)
(0.461939991 0.191341996 -1)
(0.396676987 0.304381013 -1)
(0.268649995 0.421696007 -1)
(0.25 0.433012992 -1)
(0.191341996 0.461939991 -1)
(0.129409999 0.482962996 -1)
(0.0435778983 0.498097003 -1)
(0.0652631 0.495721996 -1)
(-0.0218097009 0.499523997 -1)
(-0.0435778983 0.498097003 -1)
(0 0.5 -1)
(-0.0868240967 0.492404014 -1)
(-0.0652631 0.495721996 -1)
(-0.171010002 0.46984601 -1)
(-0.230874002 0.443504989 -1)
(-0.191341996 0.461939991 -1)
(-0.304381013 0.396676987 -1)
(-0.433012992 0.25 -1)
(-0.461939991 0.191341996 -1)
(-0.492404014 0.0868240967 -1)
(-0.482962996 0.129409999 -1)
(-0.498097003 0.0435778983 -1)
(-0.495721996 0.0652631 -1)
(-0.499523997 0.0218097009 -1)
(-0.47685799 0.150353 -1)
(-0.453153998 0.211309001 -1)
(-0.421696007 0.268649995 -1)
(-0.38302201 0.321393996 -1)
(-0.337794989 0.368638992 -1)
(-0.286787987 0.409575999 -1)
(-0.25 0.433012992 -1)
(-0.129409999 0.482962996 -1)
(-0.108220004 0.488148004 -1)
(0.0868240967 0.492404014 -1)
(0.150353 0.47685799 -1)
(0.211309001 0.453153998 -1)
(0.321393996 0.38302201 -1)
(0.368638992 0.337794989 -1)
(0.409575999 0.286787987 -1)
(0.443504989 0.230874002 -1)
(0.482962996 0.129409999 -1)
(0.47685799 -0.150353 -1)
(0.453153998 -0.211309001 -1)
(0.421696007 -0.268649995 -1)
(0.38302201 -0.321393996 -1)
(0.337794989 -0.368638992 -1)
(0.286787987 -0.409575999 -1)
(0.25 -0.433012992 -1)
(0.129409999 -0.482962996 -1)
(0.108220004 -0.488148004 -1)
(-0.268649995 -0.421696007 -1)
(-0.321393996 -0.38302201 -1)
(-0.409575999 -0.286787987 -1)
(-0.482962996 -0.129409999 -1)
(-0.488148004 -0.108220004 -1)
(-0.499523997 0.0218097009 1)
(-0.498097003 0.0435778983 1)
(-0.5 0 1)
(-0.492404014 0.0868240967 1)
(-0.495721996 0.0652631 1)
(-0.443504989 0.230874002 1)
(-0.461939991 0.191341996 1)
(-0.396676987 0.304381013 1)
(-0.25 0.433012992 1)
(-0.150353 0.47685799 1)
(-0.191341996 0.461939991 1)
(-0.129409999 0.482962996 1)
(-0.0435778983 0.498097003 1)
(-0.0218097009 0.499523997 1)
(-0.0652631 0.495721996 1)
(0.0218097009 0.499523997 1)
(0.0435778983 0.498097003 1)
(0 0.5 1)
(0.0868240967 0.492404014 1)
(0.0652631 0.495721996 1)
(0.171010002 0.46984601 1)
(0.230874002 0.443504989 1)
(0.191341996 0.461939991 1)
(0.304381013 0.396676987 1)
(0.433012992 0.25 1)
(0.461939991 0.191341996 1)
(0.492404014 0.0868240967 1)
(0.482962996 0.129409999 1)
(0.498097003 0.0435778983 1)
(0.499523997 0.0218097009 1)
(0.495721996 0.0652631 1)
(0.499523997 -0.0218097009 1)
(0.5 1.45716997e-16 1)
(0.492404014 -0.0868240967 1)
(0.488148004 -0.108220004 1)
(0.495721996 -0.0652631 1)
(0.46984601 -0.171010002 1)
(0.461939991 -0.191341996 1)
(0.368638992 -0.337794989 1)
(0.396676987 -0.304381013 1)
(0.268649995 -0.421696007 1)
(0.211309001 -0.453153998 1)
(0.25 -0.433012992 1)
(0.191341996 -0.461939991 1)
(0.0868240967 -0.492404014 1)
(0.129409999 -0.482962996 1)
(0.0435778983 -0.498097003 1)
(0.0218097009 -0.499523997 1)
(0.0652631 -0.495721996 1)
(-0.0218097009 -0.499523997 1)