/*--------------------------------*- C++ -*----------------------------------*\
| =========                 |                                                 |
| \\      /  F ield         | OpenFOAM: The Open Source CFD Toolbox           |
|  \\    /   O peration     | Version:  v1912                                 |
|   \\  /    A nd           | Website:  www.openfoam.com                      |
|    \\/     M anipulation  |                                                 |
\*---------------------------------------------------------------------------*/
FoamFile
{
    version     2.0;
    format      ascii;
    class       volScalarField;
    object      T;
}
// * * * * * * * * * * * * * * * * * * * * * * * * * * * * * * * * * * * * * //

Tinlet          300;

dimensions      [0 0 0 1 0 0 0];

internalField   uniform $Tinlet;

boundaryField
{
    inlet
    {
        type            cyclic;
    }

    outlet
    {
        type            cyclic;
    }

    symm
    {
        type            symmetry;
    }

    wall
    {
        type            zeroGradient;
    }

}

// ************************************************************************* //
