/*--------------------------------*- C++ -*----------------------------------*\
| =========                 |                                                 |
| \\      /  F ield         | OpenFOAM: The Open Source CFD Toolbox           |
|  \\    /   O peration     | Version:  2206                                  |
|   \\  /    A nd           | Website:  www.openfoam.com                      |
|    \\/     M anipulation  |                                                 |
\*---------------------------------------------------------------------------*/
FoamFile
{
    version     2.0;
    format      ascii;
    arch        "LSB;label=32;scalar=64";
    class       extendedFeatureEdgeMesh;
    location    "constant/extendedFeatureEdgeMesh";
    object      join.extendedFeatureEdgeMesh;
}
// * * * * * * * * * * * * * * * * * * * * * * * * * * * * * * * * * * * * * //

// points

1440
(
(0.00199987995 -2.18096993e-05 0.000499524001)
(0.00199953001 -4.35779002e-05 0.000498096982)
(0.00199893001 -6.52630988e-05 0.000495721994)
(0.00199810998 -8.68240968e-05 0.000492403982)
(0.00199706992 -0.000108220003 0.000488148013)
(0.00199581007 -0.000129409993 0.000482962991)
(0.00199433998 -0.000150352993 0.000476857997)
(0.0019926799 -0.000171010004 0.000469846011)
(0.00199083006 -0.000191341998 0.000461940013)
(0.00198881002 -0.000211309001 0.000453154003)
(0.00198663003 -0.000230873993 0.000443505007)
(0.0019843101 -0.000250000012 0.000433012989)
(0.00198187004 -0.000268650008 0.000421695993)
(0.00197933009 -0.00028678801 0.000409575994)
(0.00197670003 -0.000304381014 0.000396677002)
(0.00197400991 -0.000321394007 0.000383022008)
(0.00197126996 -0.000337795005 0.000368639012)
(0.00196849997 -0.000353553012 0.000353553012)
(0.00196572999 -0.000368639012 0.000337795005)
(0.00196298002 -0.000383022008 0.000321394007)
(0.00196027011 -0.000396677002 0.000304381014)
(0.00195761002 -0.000409575994 0.00028678801)
(0.00195504003 -0.000421695993 0.000268650008)
(0.00195256004 -0.000433012989 0.000250000012)
(0.00195020996 -0.000443505007 0.000230873993)
(0.00194799004 -0.000453154003 0.000211309001)
(0.00194592006 -0.000461940013 0.000191341998)
(0.00194403005 -0.000469846011 0.000171010004)
(0.00194232003 -0.000476857997 0.000150352993)
(0.00194081001 -0.000482962991 0.000129409993)
(0.00193951 -0.000488148013 0.000108220003)
(0.00193844002 -0.000492403982 8.68240968e-05)
(0.00193758996 -0.000495721994 6.52630988e-05)
(0.00193698006 -0.000498096982 4.35779002e-05)
(0.00193660997 -0.000499524001 2.18096993e-05)
(0.00193648995 -0.000500000024 9.18485002e-20)
(0.00193660997 -0.000499524001 -2.18096993e-05)
(0.00193698006 -0.000498096982 -4.35779002e-05)
(0.00193758996 -0.000495721994 -6.52630988e-05)
(0.00193844002 -0.000492403982 -8.68240968e-05)
(0.00193951 -0.000488148013 -0.000108220003)
(0.00194081001 -0.000482962991 -0.000129409993)
(0.00194232003 -0.000476857997 -0.000150352993)
(0.00194403005 -0.000469846011 -0.000171010004)
(0.00194592006 -0.000461940013 -0.000191341998)
(0.00194799004 -0.000453154003 -0.000211309001)
(0.00195020996 -0.000443505007 -0.000230873993)
(0.00195256004 -0.000433012989 -0.000250000012)
(0.00195504003 -0.000421695993 -0.000268650008)
(0.00195761002 -0.000409575994 -0.00028678801)
(0.00196027011 -0.000396677002 -0.000304381014)
(0.00196298002 -0.000383022008 -0.000321394007)
(0.00196572999 -0.000368639012 -0.000337795005)
(0.00196849997 -0.000353553012 -0.000353553012)
(0.00197126996 -0.000337795005 -0.000368639012)
(0.00197400991 -0.000321394007 -0.000383022008)
(0.00197670003 -0.000304381014 -0.000396677002)
(0.00197933009 -0.00028678801 -0.000409575994)
(0.00198187004 -0.000268650008 -0.000421695993)
(0.0019843101 -0.000250000012 -0.000433012989)
(0.00198663003 -0.000230873993 -0.000443505007)
(0.00198881002 -0.000211309001 -0.000453154003)
(0.00199083006 -0.000191341998 -0.000461940013)
(0.0019926799 -0.000171010004 -0.000469846011)
(0.00199433998 -0.000150352993 -0.000476857997)
(0.00199581007 -0.000129409993 -0.000482962991)
(0.00199706992 -0.000108220003 -0.000488148013)
(0.00199810998 -8.68240968e-05 -0.000492403982)
(0.00199893001 -6.52630988e-05 -0.000495721994)
(0.00199953001 -4.35779002e-05 -0.000498096982)
(0.00199987995 -2.18096993e-05 -0.000499524001)
(0.00200000009 0 -0.000500000024)
(0.00199987995 2.18096993e-05 -0.000499524001)
(0.00199953001 4.35779002e-05 -0.000498096982)
(0.00199893001 6.52630988e-05 -0.000495721994)
(0.00199810998 8.68240968e-05 -0.000492403982)
(0.00199706992 0.000108220003 -0.000488148013)
(0.00199581007 0.000129409993 -0.000482962991)
(0.00199433998 0.000150352993 -0.000476857997)
(0.0019926799 0.000171010004 -0.000469846011)
(0.00199083006 0.000191341998 -0.000461940013)
(0.00198881002 0.000211309001 -0.000453154003)
(0.00198663003 0.000230873993 -0.000443505007)
(0.0019843101 0.000250000012 -0.000433012989)
(0.00198187004 0.000268650008 -0.000421695993)
(0.00197933009 0.00028678801 -0.000409575994)
(0.00197670003 0.000304381014 -0.000396677002)
(0.00197400991 0.000321394007 -0.000383022008)
(0.00197126996 0.000337795005 -0.000368639012)
(0.00196849997 0.000353553012 -0.000353553012)
(0.00196572999 0.000368639012 -0.000337795005)
(0.00196298002 0.000383022008 -0.000321394007)
(0.00196027011 0.000396677002 -0.000304381014)
(0.00195761002 0.000409575994 -0.00028678801)
(0.00195504003 0.000421695993 -0.000268650008)
(0.00195256004 0.000433012989 -0.000250000012)
(0.00195020996 0.000443505007 -0.000230873993)
(0.00194799004 0.000453154003 -0.000211309001)
(0.00194592006 0.000461940013 -0.000191341998)
(0.00194403005 0.000469846011 -0.000171010004)
(0.00194232003 0.000476857997 -0.000150352993)
(0.00194081001 0.000482962991 -0.000129409993)
(0.00193951 0.000488148013 -0.000108220003)
(0.00193844002 0.000492403982 -8.68240968e-05)
(0.00193758996 0.000495721994 -6.52630988e-05)
(0.00193698006 0.000498096982 -4.35779002e-05)
(0.00193660997 0.000499524001 -2.18096993e-05)
(0.00193648995 0.000500000024 7.46540015e-19)
(0.00193660997 0.000499524001 2.18096993e-05)
(0.00193698006 0.000498096982 4.35779002e-05)
(0.00193758996 0.000495721994 6.52630988e-05)
(0.00193844002 0.000492403982 8.68240968e-05)
(0.00193951 0.000488148013 0.000108220003)
(0.00194081001 0.000482962991 0.000129409993)
(0.00194232003 0.000476857997 0.000150352993)
(0.00194403005 0.000469846011 0.000171010004)
(0.00194592006 0.000461940013 0.000191341998)
(0.00194799004 0.000453154003 0.000211309001)
(0.00195020996 0.000443505007 0.000230873993)
(0.00195256004 0.000433012989 0.000250000012)
(0.00195504003 0.000421695993 0.000268650008)
(0.00195761002 0.000409575994 0.00028678801)
(0.00196027011 0.000396677002 0.000304381014)
(0.00196298002 0.000383022008 0.000321394007)
(0.00196572999 0.000368639012 0.000337795005)
(0.00196849997 0.000353553012 0.000353553012)
(0.00197126996 0.000337795005 0.000368639012)
(0.00197400991 0.000321394007 0.000383022008)
(0.00197670003 0.000304381014 0.000396677002)
(0.00197933009 0.00028678801 0.000409575994)
(0.00198187004 0.000268650008 0.000421695993)
(0.0019843101 0.000250000012 0.000433012989)
(0.00198663003 0.000230873993 0.000443505007)
(0.00198881002 0.000211309001 0.000453154003)
(0.00199083006 0.000191341998 0.000461940013)
(0.0019926799 0.000171010004 0.000469846011)
(0.00199433998 0.000150352993 0.000476857997)
(0.00199581007 0.000129409993 0.000482962991)
(0.00199706992 0.000108220003 0.000488148013)
(0.00199810998 8.68240968e-05 0.000492403982)
(0.00199893001 6.52630988e-05 0.000495721994)
(0.00199953001 4.35779002e-05 0.000498096982)
(0.00199987995 2.18096993e-05 0.000499524001)
(0.00200000009 6.12322969e-20 0.000500000024)
(-0.00199987995 -2.18096993e-05 -0.000499524001)
(-0.00199953001 -4.35779002e-05 -0.000498096982)
(-0.00199893001 -6.52630988e-05 -0.000495721994)
(-0.00199810998 -8.68240968e-05 -0.000492403982)
(-0.00199706992 -0.000108220003 -0.000488148013)
(-0.00199581007 -0.000129409993 -0.000482962991)
(-0.00199433998 -0.000150352993 -0.000476857997)
(-0.0019926799 -0.000171010004 -0.000469846011)
(-0.00199083006 -0.000191341998 -0.000461940013)
(-0.00198881002 -0.000211309001 -0.000453154003)
(-0.00198663003 -0.000230873993 -0.000443505007)
(-0.0019843101 -0.000250000012 -0.000433012989)
(-0.00198187004 -0.000268650008 -0.000421695993)
(-0.00197933009 -0.00028678801 -0.000409575994)
(-0.00197670003 -0.000304381014 -0.000396677002)
(-0.00197400991 -0.000321394007 -0.000383022008)
(-0.00197126996 -0.000337795005 -0.000368639012)
(-0.00196849997 -0.000353553012 -0.000353553012)
(-0.00196572999 -0.000368639012 -0.000337795005)
(-0.00196298002 -0.000383022008 -0.000321394007)
(-0.00196027011 -0.000396677002 -0.000304381014)
(-0.00195761002 -0.000409575994 -0.00028678801)
(-0.00195504003 -0.000421695993 -0.000268650008)
(-0.00195256004 -0.000433012989 -0.000250000012)
(-0.00195020996 -0.000443505007 -0.000230873993)
(-0.00194799004 -0.000453154003 -0.000211309001)
(-0.00194592006 -0.000461940013 -0.000191341998)
(-0.00194403005 -0.000469846011 -0.000171010004)
(-0.00194232003 -0.000476857997 -0.000150352993)
(-0.00194081001 -0.000482962991 -0.000129409993)
(-0.00193951 -0.000488148013 -0.000108220003)
(-0.00193844002 -0.000492403982 -8.68240968e-05)
(-0.00193758996 -0.000495721994 -6.52630988e-05)
(-0.00193698006 -0.000498096982 -4.35779002e-05)
(-0.00193660997 -0.000499524001 -2.18096993e-05)
(-0.00193648995 -0.000500000024 -3.06162001e-20)
(-0.00193660997 -0.000499524001 2.18096993e-05)
(-0.00193698006 -0.000498096982 4.35779002e-05)
(-0.00193758996 -0.000495721994 6.52630988e-05)
(-0.00193844002 -0.000492403982 8.68240968e-05)
(-0.00193951 -0.000488148013 0.000108220003)
(-0.00194081001 -0.000482962991 0.000129409993)
(-0.00194232003 -0.000476857997 0.000150352993)
(-0.00194403005 -0.000469846011 0.000171010004)
(-0.00194592006 -0.000461940013 0.000191341998)
(-0.00194799004 -0.000453154003 0.000211309001)
(-0.00195020996 -0.000443505007 0.000230873993)
(-0.00195256004 -0.000433012989 0.000250000012)
(-0.00195504003 -0.000421695993 0.000268650008)
(-0.00195761002 -0.000409575994 0.00028678801)
(-0.00196027011 -0.000396677002 0.000304381014)
(-0.00196298002 -0.000383022008 0.000321394007)
(-0.00196572999 -0.000368639012 0.000337795005)
(-0.00196849997 -0.000353553012 0.000353553012)
(-0.00197126996 -0.000337795005 0.000368639012)
(-0.00197400991 -0.000321394007 0.000383022008)
(-0.00197670003 -0.000304381014 0.000396677002)
(-0.00197933009 -0.00028678801 0.000409575994)
(-0.00198187004 -0.000268650008 0.000421695993)
(-0.0019843101 -0.000250000012 0.000433012989)
(-0.00198663003 -0.000230873993 0.000443505007)
(-0.00198881002 -0.000211309001 0.000453154003)
(-0.00199083006 -0.000191341998 0.000461940013)
(-0.0019926799 -0.000171010004 0.000469846011)
(-0.00199433998 -0.000150352993 0.000476857997)
(-0.00199581007 -0.000129409993 0.000482962991)
(-0.00199706992 -0.000108220003 0.000488148013)
(-0.00199810998 -8.68240968e-05 0.000492403982)
(-0.00199893001 -6.52630988e-05 0.000495721994)
(-0.00199953001 -4.35779002e-05 0.000498096982)
(-0.00199987995 -2.18096993e-05 0.000499524001)
(-0.00200000009 -6.12322969e-20 0.000500000024)
(-0.00199987995 2.18096993e-05 0.000499524001)
(-0.00199953001 4.35779002e-05 0.000498096982)
(-0.00199893001 6.52630988e-05 0.000495721994)
(-0.00199810998 8.68240968e-05 0.000492403982)
(-0.00199706992 0.000108220003 0.000488148013)
(-0.00199581007 0.000129409993 0.000482962991)
(-0.00199433998 0.000150352993 0.000476857997)
(-0.0019926799 0.000171010004 0.000469846011)
(-0.00199083006 0.000191341998 0.000461940013)
(-0.00198881002 0.000211309001 0.000453154003)
(-0.00198663003 0.000230873993 0.000443505007)
(-0.0019843101 0.000250000012 0.000433012989)
(-0.00198187004 0.000268650008 0.000421695993)
(-0.00197933009 0.00028678801 0.000409575994)
(-0.00197670003 0.000304381014 0.000396677002)
(-0.00197400991 0.000321394007 0.000383022008)
(-0.00197126996 0.000337795005 0.000368639012)
(-0.00196849997 0.000353553012 0.000353553012)
(-0.00196572999 0.000368639012 0.000337795005)
(-0.00196298002 0.000383022008 0.000321394007)
(-0.00196027011 0.000396677002 0.000304381014)
(-0.00195761002 0.000409575994 0.00028678801)
(-0.00195504003 0.000421695993 0.000268650008)
(-0.00195256004 0.000433012989 0.000250000012)
(-0.00195020996 0.000443505007 0.000230873993)
(-0.00194799004 0.000453154003 0.000211309001)
(-0.00194592006 0.000461940013 0.000191341998)
(-0.00194403005 0.000469846011 0.000171010004)
(-0.00194232003 0.000476857997 0.000150352993)
(-0.00194081001 0.000482962991 0.000129409993)
(-0.00193951 0.000488148013 0.000108220003)
(-0.00193844002 0.000492403982 8.68240968e-05)
(-0.00193758996 0.000495721994 6.52630988e-05)
(-0.00193698006 0.000498096982 4.35779002e-05)
(-0.00193660997 0.000499524001 2.18096993e-05)
(-0.00193648995 0.000500000024 9.80027046e-19)
(-0.00193660997 0.000499524001 -2.18096993e-05)
(-0.00193698006 0.000498096982 -4.35779002e-05)
(-0.00193758996 0.000495721994 -6.52630988e-05)
(-0.00193844002 0.000492403982 -8.68240968e-05)
(-0.00193951 0.000488148013 -0.000108220003)
(-0.00194081001 0.000482962991 -0.000129409993)
(-0.00194232003 0.000476857997 -0.000150352993)
(-0.00194403005 0.000469846011 -0.000171010004)
(-0.00194592006 0.000461940013 -0.000191341998)
(-0.00194799004 0.000453154003 -0.000211309001)
(-0.00195020996 0.000443505007 -0.000230873993)
(-0.00195256004 0.000433012989 -0.000250000012)
(-0.00195504003 0.000421695993 -0.000268650008)
(-0.00195761002 0.000409575994 -0.00028678801)
(-0.00196027011 0.000396677002 -0.000304381014)
(-0.00196298002 0.000383022008 -0.000321394007)
(-0.00196572999 0.000368639012 -0.000337795005)
(-0.00196849997 0.000353553012 -0.000353553012)
(-0.00197126996 0.000337795005 -0.000368639012)
(-0.00197400991 0.000321394007 -0.000383022008)
(-0.00197670003 0.000304381014 -0.000396677002)
(-0.00197933009 0.00028678801 -0.000409575994)
(-0.00198187004 0.000268650008 -0.000421695993)
(-0.0019843101 0.000250000012 -0.000433012989)
(-0.00198663003 0.000230873993 -0.000443505007)
(-0.00198881002 0.000211309001 -0.000453154003)
(-0.00199083006 0.000191341998 -0.000461940013)
(-0.0019926799 0.000171010004 -0.000469846011)
(-0.00199433998 0.000150352993 -0.000476857997)
(-0.00199581007 0.000129409993 -0.000482962991)
(-0.00199706992 0.000108220003 -0.000488148013)
(-0.00199810998 8.68240968e-05 -0.000492403982)
(-0.00199893001 6.52630988e-05 -0.000495721994)
(-0.00199953001 4.35779002e-05 -0.000498096982)
(-0.00199987995 2.18096993e-05 -0.000499524001)
(-0.00200000009 1.22464994e-19 -0.000500000024)
(-0.000499524001 2.18096993e-05 0.00300000003)
(-0.000500000024 0 0.00300000003)
(-0.000500000024 -1.22464994e-19 0.00200000009)
(-0.000499524001 2.18096993e-05 0.00200000009)
(-0.000498096982 4.35779002e-05 0.00300000003)
(-0.000498096982 4.35779002e-05 0.00200000009)
(-0.000495721994 6.52630988e-05 0.00300000003)
(-0.000495721994 6.52630988e-05 0.00200000009)
(-0.000492403982 8.68240968e-05 0.00300000003)
(-0.000492403982 8.68240968e-05 0.00200000009)
(-0.000488148013 0.000108220003 0.00300000003)
(-0.000488148013 0.000108220003 0.00200000009)
(-0.000482962991 0.000129409993 0.00300000003)
(-0.000482962991 0.000129409993 0.00200000009)
(-0.000476857997 0.000150352993 0.00300000003)
(-0.000476857997 0.000150352993 0.00200000009)
(-0.000469846011 0.000171010004 0.00300000003)
(-0.000469846011 0.000171010004 0.00200000009)
(-0.000461940013 0.000191341998 0.00300000003)
(-0.000461940013 0.000191341998 0.00200000009)
(-0.000453154003 0.000211309001 0.00300000003)
(-0.000453154003 0.000211309001 0.00200000009)
(-0.000443505007 0.000230873993 0.00300000003)
(-0.000443505007 0.000230873993 0.00200000009)
(-0.000433012989 0.000250000012 0.00300000003)
(-0.000433012989 0.000250000012 0.00200000009)
(-0.000421695993 0.000268650008 0.00300000003)
(-0.000421695993 0.000268650008 0.00200000009)
(-0.000409575994 0.00028678801 0.00300000003)
(-0.000409575994 0.00028678801 0.00200000009)
(-0.000396677002 0.000304381014 0.00300000003)
(-0.000396677002 0.000304381014 0.00200000009)
(-0.000383022008 0.000321394007 0.00300000003)
(-0.000383022008 0.000321394007 0.00200000009)
(-0.000368639012 0.000337795005 0.00300000003)
(-0.000368639012 0.000337795005 0.00200000009)
(-0.000353553012 0.000353553012 0.00300000003)
(-0.000353553012 0.000353553012 0.00200000009)
(-0.000337795005 0.000368639012 0.00300000003)
(-0.000337795005 0.000368639012 0.00200000009)
(-0.000321394007 0.000383022008 0.00300000003)
(-0.000321394007 0.000383022008 0.00200000009)
(-0.000304381014 0.000396677002 0.00300000003)
(-0.000304381014 0.000396677002 0.00200000009)
(-0.00028678801 0.000409575994 0.00300000003)
(-0.00028678801 0.000409575994 0.00200000009)
(-0.000268650008 0.000421695993 0.00300000003)
(-0.000268650008 0.000421695993 0.00200000009)
(-0.000250000012 0.000433012989 0.00300000003)
(-0.000250000012 0.000433012989 0.00200000009)
(-0.000230873993 0.000443505007 0.00300000003)
(-0.000230873993 0.000443505007 0.00200000009)
(-0.000211309001 0.000453154003 0.00300000003)
(-0.000211309001 0.000453154003 0.00200000009)
(-0.000191341998 0.000461940013 0.00300000003)
(-0.000191341998 0.000461940013 0.00200000009)
(-0.000171010004 0.000469846011 0.00300000003)
(-0.000171010004 0.000469846011 0.00200000009)
(-0.000150352993 0.000476857997 0.00300000003)
(-0.000150352993 0.000476857997 0.00200000009)
(-0.000129409993 0.000482962991 0.00300000003)
(-0.000129409993 0.000482962991 0.00200000009)
(-0.000108220003 0.000488148013 0.00300000003)
(-0.000108220003 0.000488148013 0.00200000009)
(-8.68240968e-05 0.000492403982 0.00300000003)
(-8.68240968e-05 0.000492403982 0.00200000009)
(-6.52630988e-05 0.000495721994 0.00300000003)
(-6.52630988e-05 0.000495721994 0.00200000009)
(-4.35779002e-05 0.000498096982 0.00300000003)
(-4.35779002e-05 0.000498096982 0.00200000009)
(-2.18096993e-05 0.000499524001 0.00300000003)
(-2.18096993e-05 0.000499524001 0.00200000009)
(0 0.000500000024 0.00300000003)
(-3.06162001e-20 0.000500000024 0.00200000009)
(2.18096993e-05 0.000499524001 0.00300000003)
(2.18096993e-05 0.000499524001 0.00200000009)
(4.35779002e-05 0.000498096982 0.00300000003)
(4.35779002e-05 0.000498096982 0.00200000009)
(6.52630988e-05 0.000495721994 0.00300000003)
(6.52630988e-05 0.000495721994 0.00200000009)
(8.68240968e-05 0.000492403982 0.00300000003)
(8.68240968e-05 0.000492403982 0.00200000009)
(0.000108220003 0.000488148013 0.00300000003)
(0.000108220003 0.000488148013 0.00200000009)
(0.000129409993 0.000482962991 0.00300000003)
(0.000129409993 0.000482962991 0.00200000009)
(0.000150352993 0.000476857997 0.00300000003)
(0.000150352993 0.000476857997 0.00200000009)
(0.000171010004 0.000469846011 0.00300000003)
(0.000171010004 0.000469846011 0.00200000009)
(0.000191341998 0.000461940013 0.00300000003)
(0.000191341998 0.000461940013 0.00200000009)
(0.000211309001 0.000453154003 0.00300000003)
(0.000211309001 0.000453154003 0.00200000009)
(0.000230873993 0.000443505007 0.00300000003)
(0.000230873993 0.000443505007 0.00200000009)
(0.000250000012 0.000433012989 0.00300000003)
(0.000250000012 0.000433012989 0.00200000009)
(0.000268650008 0.000421695993 0.00300000003)
(0.000268650008 0.000421695993 0.00200000009)
(0.00028678801 0.000409575994 0.00300000003)
(0.00028678801 0.000409575994 0.00200000009)
(0.000304381014 0.000396677002 0.00300000003)
(0.000304381014 0.000396677002 0.00200000009)
(0.000321394007 0.000383022008 0.00300000003)
(0.000321394007 0.000383022008 0.00200000009)
(0.000337795005 0.000368639012 0.00300000003)
(0.000337795005 0.000368639012 0.00200000009)
(0.000353553012 0.000353553012 0.00300000003)
(0.000353553012 0.000353553012 0.00200000009)
(0.000368639012 0.000337795005 0.00300000003)
(0.000368639012 0.000337795005 0.00200000009)
(0.000383022008 0.000321394007 0.00300000003)
(0.000383022008 0.000321394007 0.00200000009)
(0.000396677002 0.000304381014 0.00300000003)
(0.000396677002 0.000304381014 0.00200000009)
(0.000409575994 0.00028678801 0.00300000003)
(0.000409575994 0.00028678801 0.00200000009)
(0.000421695993 0.000268650008 0.00300000003)
(0.000421695993 0.000268650008 0.00200000009)
(0.000433012989 0.000250000012 0.00300000003)
(0.000433012989 0.000250000012 0.00200000009)
(0.000443505007 0.000230873993 0.00300000003)
(0.000443505007 0.000230873993 0.00200000009)
(0.000453154003 0.000211309001 0.00300000003)
(0.000453154003 0.000211309001 0.00200000009)
(0.000461940013 0.000191341998 0.00300000003)
(0.000461940013 0.000191341998 0.00200000009)
(0.000469846011 0.000171010004 0.00300000003)
(0.000469846011 0.000171010004 0.00200000009)
(0.000476857997 0.000150352993 0.00300000003)
(0.000476857997 0.000150352993 0.00200000009)
(0.000482962991 0.000129409993 0.00300000003)
(0.000482962991 0.000129409993 0.00200000009)
(0.000488148013 0.000108220003 0.00300000003)
(0.000488148013 0.000108220003 0.00200000009)
(0.000492403982 8.68240968e-05 0.00300000003)
(0.000492403982 8.68240968e-05 0.00200000009)
(0.000495721994 6.52630988e-05 0.00300000003)
(0.000495721994 6.52630988e-05 0.00200000009)
(0.000498096982 4.35779002e-05 0.00300000003)
(0.000498096982 4.35779002e-05 0.00200000009)
(0.000499524001 2.18096993e-05 0.00300000003)
(0.000499524001 2.18096993e-05 0.00200000009)
(0.000500000024 1.45717003e-19 0.00300000003)
(0.000500000024 6.12322969e-20 0.00200000009)
(0.000499524001 -2.18096993e-05 0.00300000003)
(0.000499524001 -2.18096993e-05 0.00200000009)
(0.000498096982 -4.35779002e-05 0.00300000003)
(0.000498096982 -4.35779002e-05 0.00200000009)
(0.000495721994 -6.52630988e-05 0.00300000003)
(0.000495721994 -6.52630988e-05 0.00200000009)
(0.000492403982 -8.68240968e-05 0.00300000003)
(0.000492403982 -8.68240968e-05 0.00200000009)
(0.000488148013 -0.000108220003 0.00300000003)
(0.000488148013 -0.000108220003 0.00200000009)
(0.000482962991 -0.000129409993 0.00300000003)
(0.000482962991 -0.000129409993 0.00200000009)
(0.000476857997 -0.000150352993 0.00300000003)
(0.000476857997 -0.000150352993 0.00200000009)
(0.000469846011 -0.000171010004 0.00300000003)
(0.000469846011 -0.000171010004 0.00200000009)
(0.000461940013 -0.000191341998 0.00300000003)
(0.000461940013 -0.000191341998 0.00200000009)
(0.000453154003 -0.000211309001 0.00300000003)
(0.000453154003 -0.000211309001 0.00200000009)
(0.000443505007 -0.000230873993 0.00300000003)
(0.000443505007 -0.000230873993 0.00200000009)
(0.000433012989 -0.000250000012 0.00300000003)
(0.000433012989 -0.000250000012 0.00200000009)
(0.000421695993 -0.000268650008 0.00300000003)
(0.000421695993 -0.000268650008 0.00200000009)
(0.000409575994 -0.00028678801 0.00300000003)
(0.000409575994 -0.00028678801 0.00200000009)
(0.000396677002 -0.000304381014 0.00300000003)
(0.000396677002 -0.000304381014 0.00200000009)
(0.000383022008 -0.000321394007 0.00300000003)
(0.000383022008 -0.000321394007 0.00200000009)
(0.000368639012 -0.000337795005 0.00300000003)
(0.000368639012 -0.000337795005 0.00200000009)
(0.000353553012 -0.000353553012 0.00300000003)
(0.000353553012 -0.000353553012 0.00200000009)
(0.000337795005 -0.000368639012 0.00300000003)
(0.000337795005 -0.000368639012 0.00200000009)
(0.000321394007 -0.000383022008 0.00300000003)
(0.000321394007 -0.000383022008 0.00200000009)
(0.000304381014 -0.000396677002 0.00300000003)
(0.000304381014 -0.000396677002 0.00200000009)
(0.00028678801 -0.000409575994 0.00300000003)
(0.00028678801 -0.000409575994 0.00200000009)
(0.000268650008 -0.000421695993 0.00300000003)
(0.000268650008 -0.000421695993 0.00200000009)
(0.000250000012 -0.000433012989 0.00300000003)
(0.000250000012 -0.000433012989 0.00200000009)
(0.000230873993 -0.000443505007 0.00300000003)
(0.000230873993 -0.000443505007 0.00200000009)
(0.000211309001 -0.000453154003 0.00300000003)
(0.000211309001 -0.000453154003 0.00200000009)
(0.000191341998 -0.000461940013 0.00300000003)
(0.000191341998 -0.000461940013 0.00200000009)
(0.000171010004 -0.000469846011 0.00300000003)
(0.000171010004 -0.000469846011 0.00200000009)
(0.000150352993 -0.000476857997 0.00300000003)
(0.000150352993 -0.000476857997 0.00200000009)
(0.000129409993 -0.000482962991 0.00300000003)
(0.000129409993 -0.000482962991 0.00200000009)
(0.000108220003 -0.000488148013 0.00300000003)
(0.000108220003 -0.000488148013 0.00200000009)
(8.68240968e-05 -0.000492403982 0.00300000003)
(8.68240968e-05 -0.000492403982 0.00200000009)
(6.52630988e-05 -0.000495721994 0.00300000003)
(6.52630988e-05 -0.000495721994 0.00200000009)
(4.35779002e-05 -0.000498096982 0.00300000003)
(4.35779002e-05 -0.000498096982 0.00200000009)
(2.18096993e-05 -0.000499524001 0.00300000003)
(2.18096993e-05 -0.000499524001 0.00200000009)
(0 -0.000500000024 0.00300000003)
(9.18485002e-20 -0.000500000024 0.00200000009)
(-2.18096993e-05 -0.000499524001 0.00300000003)
(-2.18096993e-05 -0.000499524001 0.00200000009)
(-4.35779002e-05 -0.000498096982 0.00300000003)
(-4.35779002e-05 -0.000498096982 0.00200000009)
(-6.52630988e-05 -0.000495721994 0.00300000003)
(-6.52630988e-05 -0.000495721994 0.00200000009)
(-8.68240968e-05 -0.000492403982 0.00300000003)
(-8.68240968e-05 -0.000492403982 0.00200000009)
(-0.000108220003 -0.000488148013 0.00300000003)
(-0.000108220003 -0.000488148013 0.00200000009)
(-0.000129409993 -0.000482962991 0.00300000003)
(-0.000129409993 -0.000482962991 0.00200000009)
(-0.000150352993 -0.000476857997 0.00300000003)
(-0.000150352993 -0.000476857997 0.00200000009)
(-0.000171010004 -0.000469846011 0.00300000003)
(-0.000171010004 -0.000469846011 0.00200000009)
(-0.000191341998 -0.000461940013 0.00300000003)
(-0.000191341998 -0.000461940013 0.00200000009)
(-0.000211309001 -0.000453154003 0.00300000003)
(-0.000211309001 -0.000453154003 0.00200000009)
(-0.000230873993 -0.000443505007 0.00300000003)
(-0.000230873993 -0.000443505007 0.00200000009)
(-0.000250000012 -0.000433012989 0.00300000003)
(-0.000250000012 -0.000433012989 0.00200000009)
(-0.000268650008 -0.000421695993 0.00300000003)
(-0.000268650008 -0.000421695993 0.00200000009)
(-0.00028678801 -0.000409575994 0.00300000003)
(-0.00028678801 -0.000409575994 0.00200000009)
(-0.000304381014 -0.000396677002 0.00300000003)
(-0.000304381014 -0.000396677002 0.00200000009)
(-0.000321394007 -0.000383022008 0.00300000003)
(-0.000321394007 -0.000383022008 0.00200000009)
(-0.000337795005 -0.000368639012 0.00300000003)
(-0.000337795005 -0.000368639012 0.00200000009)
(-0.000353553012 -0.000353553012 0.00300000003)
(-0.000353553012 -0.000353553012 0.00200000009)
(-0.000368639012 -0.000337795005 0.00300000003)
(-0.000368639012 -0.000337795005 0.00200000009)
(-0.000383022008 -0.000321394007 0.00300000003)
(-0.000383022008 -0.000321394007 0.00200000009)
(-0.000396677002 -0.000304381014 0.00300000003)
(-0.000396677002 -0.000304381014 0.00200000009)
(-0.000409575994 -0.00028678801 0.00300000003)
(-0.000409575994 -0.00028678801 0.00200000009)
(-0.000421695993 -0.000268650008 0.00300000003)
(-0.000421695993 -0.000268650008 0.00200000009)
(-0.000433012989 -0.000250000012 0.00300000003)
(-0.000433012989 -0.000250000012 0.00200000009)
(-0.000443505007 -0.000230873993 0.00300000003)
(-0.000443505007 -0.000230873993 0.00200000009)
(-0.000453154003 -0.000211309001 0.00300000003)
(-0.000453154003 -0.000211309001 0.00200000009)
(-0.000461940013 -0.000191341998 0.00300000003)
(-0.000461940013 -0.000191341998 0.00200000009)
(-0.000469846011 -0.000171010004 0.00300000003)
(-0.000469846011 -0.000171010004 0.00200000009)
(-0.000476857997 -0.000150352993 0.00300000003)
(-0.000476857997 -0.000150352993 0.00200000009)
(-0.000482962991 -0.000129409993 0.00300000003)
(-0.000482962991 -0.000129409993 0.00200000009)
(-0.000488148013 -0.000108220003 0.00300000003)
(-0.000488148013 -0.000108220003 0.00200000009)
(-0.000492403982 -8.68240968e-05 0.00300000003)
(-0.000492403982 -8.68240968e-05 0.00200000009)
(-0.000495721994 -6.52630988e-05 0.00300000003)
(-0.000495721994 -6.52630988e-05 0.00200000009)
(-0.000498096982 -4.35779002e-05 0.00300000003)
(-0.000498096982 -4.35779002e-05 0.00200000009)
(-0.000499524001 -2.18096993e-05 0.00300000003)
(-0.000499524001 -2.18096993e-05 0.00200000009)
(0.0504519008 0.00220277999 0.0529999994)
(0.0505000018 1.47173993e-17 0.0529999994)
(0.0503077991 0.00440136017 0.0529999994)
(0.0500679985 0.0065915701 0.0529999994)
(0.0497328006 0.00876922999 0.0529999994)
(0.0493028983 0.0109302001 0.0529999994)
(0.0487793013 0.0130703999 0.0529999994)
(0.0481626987 0.0151856001 0.0529999994)
(0.0474544987 0.0172719993 0.0529999994)
(0.0466559008 0.0193255004 0.0529999994)
(0.0457684994 0.0213421993 0.0529999994)
(0.0447940007 0.0233183 0.0529999994)
(0.0437343009 0.0252500009 0.0529999994)
(0.0425912999 0.0271336008 0.0529999994)
(0.0413671993 0.0289655998 0.0529999994)
(0.0400643013 0.0307425 0.0529999994)
(0.0386851989 0.0324608013 0.0529999994)
(0.0372324996 0.0341173001 0.0529999994)
(0.0357089005 0.0357089005 0.0529999994)
(0.0341173001 0.0372324996 0.0529999994)
(0.0324608013 0.0386851989 0.0529999994)
(0.0307425 0.0400643013 0.0529999994)
(0.0289655998 0.0413671993 0.0529999994)
(0.0271336008 0.0425912999 0.0529999994)
(0.0252500009 0.0437343009 0.0529999994)
(0.0233183 0.0447940007 0.0529999994)
(0.0213421993 0.0457684994 0.0529999994)
(0.0193255004 0.0466559008 0.0529999994)
(0.0172719993 0.0474544987 0.0529999994)
(0.0151856001 0.0481626987 0.0529999994)
(0.0130703999 0.0487793013 0.0529999994)
(0.0109302001 0.0493028983 0.0529999994)
(0.00876922999 0.0497328006 0.0529999994)
(0.0065915701 0.0500679985 0.0529999994)
(0.00440136017 0.0503077991 0.0529999994)
(0.00220277999 0.0504519008 0.0529999994)
(-1.40166003e-18 0.0505000018 0.0529999994)
(-0.00220277999 0.0504519008 0.0529999994)
(-0.00440136017 0.0503077991 0.0529999994)
(-0.0065915701 0.0500679985 0.0529999994)
(-0.00876922999 0.0497328006 0.0529999994)
(-0.0109302001 0.0493028983 0.0529999994)
(-0.0130703999 0.0487793013 0.0529999994)
(-0.0151856001 0.0481626987 0.0529999994)
(-0.0172719993 0.0474544987 0.0529999994)
(-0.0193255004 0.0466559008 0.0529999994)
(-0.0213421993 0.0457684994 0.0529999994)
(-0.0233183 0.0447940007 0.0529999994)